10
Lattice="16.28999089631971 0.0 0.0 0.0 16.28999089631971 0.0 0.0 0.0 34.5300574570662" Properties=species:S:1:pos:R:3:initial_magmoms:R:1 pbc="T T T"
Si       0.89202085       1.77463260      -1.22451926       0.00000000
Si      -0.81248818      -1.58661342      -1.60153055       0.00000000
Si      -1.30884678       1.38935781       1.44985232       0.00000000
Si       1.41875800      -1.30056102       1.44081579       0.00000000
Si      -2.49417234      -2.65052961      -0.10729185       0.00000000
Si       1.54217104      -2.09670219      -2.57859360       0.00000000
Si       2.65083586       2.66453901       0.05528265       0.00000000
Si      -2.55183894       2.77358427      -0.02146044       0.00000000
Si      -0.68195153       3.52284282      -1.42549622       0.00000000
Si      -2.66187789       0.04685004       2.81871434       0.00000000
