10
Lattice="16.28999089631971 0.0 0.0 0.0 16.28999089631971 0.0 0.0 0.0 34.5300574570662" Properties=species:S:1:pos:R:3:initial_magmoms:R:1 pbc="T T T"
Si       1.35401177      -1.35166275       1.35958724       0.00000000
Si      -1.35642336      -1.35505107      -1.35713561       0.00000000
Si      -1.35485952       1.35829278       1.36307478       0.00000000
Si       1.35863813       1.36028016      -1.35741185       0.00000000
Si       2.68262417       0.01324377       2.71910542       0.00000000
Si      -2.71263102      -2.71107954       0.00031077       0.00000000
Si       0.00123641      -2.71226871      -2.71558336       0.00000000
Si       2.71489466      -2.71324611      -0.00010359       0.00000000
Si      -2.71427631       0.00245979      -2.71561789       0.00000000
Si       2.71596980       0.00254124      -2.71472010       0.00000000
