10
Lattice="16.28999089631971 0.0 0.0 0.0 16.28999089631971 0.0 0.0 0.0 34.5300574570662" Properties=species:S:1:pos:R:3:initial_magmoms:R:1 pbc="T T T"
Si      -0.40795536       2.29892625      -0.01733410       0.00000000
Si       1.49578038      -0.82326402      -1.61635289       0.00000000
Si      -1.90621412      -1.32295977       0.41415374       0.00000000
Si       1.26275193      -0.17097984       2.01365596       0.00000000
Si      -0.66388918      -3.33527976       0.20427993       0.00000000
Si      -2.37803768      -0.36158913       2.65273862       0.00000000
Si       3.55209966      -0.18120996      -0.65776343       0.00000000
Si       1.13013504      -3.14208036      -1.39905512       0.00000000
Si      -0.19283287       2.85107580       2.30902623       0.00000000
Si      -0.26559379      -1.23615036       3.45614991       0.00000000
