10
Lattice="16.28999089631971 0.0 0.0 0.0 16.28999089631971 0.0 0.0 0.0 34.5300574570662" Properties=species:S:1:pos:R:3:initial_magmoms:R:1 pbc="T T T"
Si       0.15019869       2.32210692       0.00096684       0.00000000
Si      -1.78152231      -1.01879289       1.20882893       0.00000000
Si       2.01892558      -1.03280229       0.74253477       0.00000000
Si      -0.21512248      -0.55214955      -2.32636033       0.00000000
Si       1.45558480      -3.02205564      -0.29537028       0.00000000
Si       0.86495827       2.65123008      -2.25954463       0.00000000
Si      -2.08406019       2.98613619       0.18477044       0.00000000
Si      -2.43571242       0.11417661      -2.71907089       0.00000000
Si       0.19283287      -2.85107580      -2.30902623       0.00000000
Si      -0.86766960      -1.34894232       3.31840944       0.00000000
