10
Lattice="16.28999089631971 0.0 0.0 0.0 16.28999089631971 0.0 0.0 0.0 34.5300574570662" Properties=species:S:1:pos:R:3:initial_magmoms:R:1 pbc="T T T"
Si       1.61974728       1.01815758      -1.32170775       0.00000000
Si       0.32205982      -0.51945552       2.24915108       0.00000000
Si      -1.13354684      -1.61482770      -1.29864166       0.00000000
Si      -0.73481909       1.94444512       1.18869789       0.00000000
Si      -2.06424341      -0.54066510       2.53378250       0.00000000
Si      -2.44656971      -0.23312619      -2.64565995       0.00000000
Si       0.27584997       2.47851440      -2.63364348       0.00000000
Si       0.84066174      -2.76385914       2.39006832       0.00000000
Si       3.00555387       2.27546932       0.08301030       0.00000000
Si       1.29236715       3.25613384       1.54111186       0.00000000
