10
Lattice="16.28999089631971 0.0 0.0 0.0 16.28999089631971 0.0 0.0 0.0 34.5300574570662" Properties=species:S:1:pos:R:3:initial_magmoms:R:1 pbc="T T T"
Si      -1.87879575      -0.17356995      -1.36165905       0.00000000
Si      -0.27756531      -0.51043086       2.28371569       0.00000000
Si       1.07318520       2.08151991      -0.36387795       0.00000000
Si       1.75953177      -1.06875432      -1.18455428       0.00000000
Si       2.37853548       1.90843866       1.68392825       0.00000000
Si      -0.76523904       0.18324621      -3.41202047       0.00000000
Si       1.59519825       0.24640254      -3.17390107       0.00000000
Si      -2.14834963      -2.56490937      -1.31683901       0.00000000
Si       1.79530461      -1.69262874       2.80864191       0.00000000
Si      -0.97503795       1.55654208       3.34316750       0.00000000
