10
Lattice="16.28999089631971 0.0 0.0 0.0 16.28999089631971 0.0 0.0 0.0 34.5300574570662" Properties=species:S:1:pos:R:3:initial_magmoms:R:1 pbc="T T T"
Si      -1.07318520      -2.08151991       0.36387795       0.00000000
Si      -1.60160022       1.48888971      -0.97754647       0.00000000
Si       1.63009143       0.15131781      -1.78113042       0.00000000
Si       1.30535028      -0.17308125       2.04780620       0.00000000
Si       0.68634657      -3.15027423      -0.82067633       0.00000000
Si       0.52201305      -1.83511737      -2.81002312       0.00000000
Si       3.69949158      -0.38828844      -0.71249360       0.00000000
Si      -0.46929861       3.39481875      -1.73237395       0.00000000
Si      -2.95198095      -2.25508986      -0.99778110       0.00000000
Si      -3.61004319       1.42535871       0.25635129       0.00000000
