10
Lattice="16.28999089631971 0.0 0.0 0.0 16.28999089631971 0.0 0.0 0.0 34.5300574570662" Properties=species:S:1:pos:R:3:initial_magmoms:R:1 pbc="T T T"
Si      -0.12358246       0.34178049      -2.33122907       0.00000000
Si       0.63801903       2.11664019       0.94405230       0.00000000
Si      -2.37279881      -0.38405304       0.25835403       0.00000000
Si       1.43823758      -1.60855605       1.11946509       0.00000000
Si      -3.05297147       1.34969070       1.64104190       0.00000000
Si      -2.64757853      -2.18243646       1.70247090       0.00000000
Si      -1.08859295      -1.55698191      -3.35963835       0.00000000
Si       0.72347800      -1.93767921       3.37997656       0.00000000
Si      -0.75875303       3.90687047       0.18746379       0.00000000
Si       0.41922315       2.12676117       3.34337468       0.00000000
