10
Lattice="16.28999089631971 0.0 0.0 0.0 16.28999089631971 0.0 0.0 0.0 34.46413024517268" Properties=species:S:1:pos:R:3:initial_magmoms:R:1 pbc="T T T"
Si      -1.35471686       1.35832536       1.36222997       0.00000000
Si       1.36071510      -1.35604476       1.36023105       0.00000000
Si      -1.36545616      -1.33636644      -1.37538149       0.00000000
Si       1.36508082       1.36329381      -1.37952753       0.00000000
Si      -2.71307899      -2.71411274       0.00000000       0.00000000
Si      -2.71215046       0.00024435       2.71760158       0.00000000
Si       2.71873095       2.71373481       0.00210231       0.00000000
Si      -2.71490347       2.71759554       0.00472159       0.00000000
Si       0.00275301      -2.71482298       2.71801515       0.00000000
Si       0.00239137       2.71503801       2.71804961       0.00000000
