10
Lattice="16.28999089631971 0.0 0.0 0.0 16.28999089631971 0.0 0.0 0.0 34.46413024517268" Properties=species:S:1:pos:R:3:initial_magmoms:R:1 pbc="T T T"
Si      -1.28314701       1.27609344      -1.61740254       0.00000000
Si      -1.92235032      -0.81160038       1.43363969       0.00000000
Si       1.40248755      -1.43650922      -1.58814247       0.00000000
Si       1.62678456       1.29386583       1.51597454       0.00000000
Si      -2.70914103       2.58292611      -0.28588012       0.00000000
Si      -2.74302423      -2.63344140       0.01736993       0.00000000
Si       0.05725935       2.62826118      -2.98797283       0.00000000
Si       2.64422538      -2.98166363      -0.19168960       0.00000000
Si      -2.65829994      -0.08583201      -2.98869658       0.00000000
Si       2.87011881       2.79827991      -0.04635428       0.00000000
