10
Lattice="16.28999089631971 0.0 0.0 0.0 16.28999089631971 0.0 0.0 0.0 34.46413024517268" Properties=species:S:1:pos:R:3:initial_magmoms:R:1 pbc="T T T"
Si      -0.01782126      -0.43456507       2.30713356       0.00000000
Si      -1.99241361       1.30119633      -0.19327495       0.00000000
Si      -1.04984163      -1.65875273      -1.47930469       0.00000000
Si       2.04250536       1.24462116      -0.68028785       0.00000000
Si      -2.31664977       0.73766007      -2.68896187       0.00000000
Si       2.51353071      -2.70246932       0.79715578       0.00000000
Si      -1.26656379       3.60004113       0.04738821       0.00000000
Si       3.71701962      -0.43242294      -0.81941962       0.00000000
Si       2.04019218       0.09655572       3.24124987       0.00000000
Si       3.02497155       1.66900824       1.72303515       0.00000000
