10
Lattice="16.28999089631971 0.0 0.0 0.0 16.28999089631971 0.0 0.0 0.0 34.46413024517268" Properties=species:S:1:pos:R:3:initial_magmoms:R:1 pbc="T T T"
Si       0.08478945      -0.49765461      -2.31902369       0.00000000
Si       2.23606314       0.19934073       0.84440613       0.00000000
Si      -1.10131803       2.15461314       0.11031974       0.00000000
Si      -0.64148391      -2.12585219       1.04926103       0.00000000
Si      -0.59311890      -3.52612430      -0.89754985       0.00000000
Si      -2.16901350       2.03110236       2.27521976       0.00000000
Si       2.27020698      -0.88480438       2.94313498       0.00000000
Si       1.12783815      -2.68683092      -2.51681345       0.00000000
Si      -1.97322399      -1.02877540      -3.25314000       0.00000000
Si       0.38980341       3.88024542      -0.78212941       0.00000000
