10
Lattice="16.28999089631971 0.0 0.0 0.0 16.28999089631971 0.0 0.0 0.0 34.46413024517268" Properties=species:S:1:pos:R:3:initial_magmoms:R:1 pbc="T T T"
Si      -1.25452548      -1.58694899       1.33879435       0.00000000
Si       0.44261559      -0.97658550      -2.21649285       0.00000000
Si       2.00671623       0.78363045       1.22664801       0.00000000
Si      -0.36450504       2.28354849      -1.26566143       0.00000000
Si      -1.36619343       2.20745790       0.80201522       0.00000000
Si       0.41798511       2.21579838       2.52505038       0.00000000
Si       2.13568416      -2.48177661      -1.50629012       0.00000000
Si       1.82514789       2.30299875      -2.15786933       0.00000000
Si       3.35196072       1.27905822      -0.65547366       0.00000000
Si      -3.49520032       0.95943213       1.05432726       0.00000000
