10
Lattice="16.28999089631971 0.0 0.0 0.0 16.28999089631971 0.0 0.0 0.0 34.46413024517268" Properties=species:S:1:pos:R:3:initial_magmoms:R:1 pbc="T T T"
Si       1.35729909       1.35669636      -1.35709482       0.00000000
Si      -1.35658233       1.35760860       1.35719821       0.00000000
Si       1.35726651      -1.35736425       1.35781856       0.00000000
Si      -1.35845568      -1.35764118      -1.35688803       0.00000000
Si      -2.71409319       0.00039096       2.71384499       0.00000000
Si      -0.00065160       2.71593396       2.71343142       0.00000000
Si       2.71454931       0.00001629       2.71515463       0.00000000
Si      -0.00128691      -2.71526607       2.71463766       0.00000000
Si       2.71529865       2.71467963       0.00034464       0.00000000
Si      -2.71412577      -0.00135207      -2.71591284       0.00000000
