10
Lattice="16.28999089631971 0.0 0.0 0.0 16.28999089631971 0.0 0.0 0.0 34.46413024517268" Properties=species:S:1:pos:R:3:initial_magmoms:R:1 pbc="T T T"
Si      -0.01500309      -2.19642142       0.78392154       0.00000000
Si      -0.54915219       1.39916439      -1.82087887       0.00000000
Si      -2.06935617       0.52867566       1.16733521       0.00000000
Si       2.22011523       0.95097762       0.49773125       0.00000000
Si       1.00778085       2.72207529       1.31070607       0.00000000
Si      -0.55472337       3.25536102      -0.38272438       0.00000000
Si       0.16941600      -1.69565705       3.10739111       0.00000000
Si      -1.38375405       0.06309117       3.38224270       0.00000000
Si       1.40214546       1.26320805      -3.16405017       0.00000000
Si       0.51787539      -2.86607873      -2.44509355       0.00000000
