10
Lattice="16.28999089631971 0.0 0.0 0.0 16.28999089631971 0.0 0.0 0.0 34.46413024517268" Properties=species:S:1:pos:R:3:initial_magmoms:R:1 pbc="T T T"
Si      -1.35775521      -1.34420193      -1.36223342       0.00000000
Si      -1.35464382       1.35602847       1.35706035       0.00000000
Si       1.35962856      -1.35725022       1.35788749       0.00000000
Si       1.34820927       1.36780614      -1.38674432       0.00000000
Si      -0.02046024      -2.70493821      -2.71971079       0.00000000
Si      -2.71076188       2.71438641      -0.00396338       0.00000000
Si      -2.71286981      -2.71342530      -0.00468712       0.00000000
Si      -2.71206346      -0.00035838       2.71439642       0.00000000
Si       0.00237834      -2.71463076       2.71443088       0.00000000
Si       0.00278559       2.71510317       2.71412070       0.00000000
