10
Lattice="16.28999089631971 0.0 0.0 0.0 16.28999089631971 0.0 0.0 0.0 34.46413024517268" Properties=species:S:1:pos:R:3:initial_magmoms:R:1 pbc="T T T"
Si       1.71655875      -1.70984727      -0.11721257       0.00000000
Si      -1.80405234      -1.39290903       0.85415948       0.00000000
Si       0.19269441       1.57157775       1.84941519       0.00000000
Si       0.84242106       1.71923031      -1.59596584       0.00000000
Si      -1.91324421      -0.97805160      -1.60754579       0.00000000
Si      -2.90716227       1.82482209       0.49469840       0.00000000
Si      -2.89699731       0.14367780       2.24857897       0.00000000
Si       2.45855196      -1.53751536       2.25633340       0.00000000
Si       2.79616221       2.37817710      -0.35935769       0.00000000
Si       2.10660651       0.38359692      -3.05438525       0.00000000
