10
Lattice="16.28999089631971 0.0 0.0 0.0 16.28999089631971 0.0 0.0 0.0 34.46413024517268" Properties=species:S:1:pos:R:3:initial_magmoms:R:1 pbc="T T T"
Si       0.93564873       0.37929636       2.10558721       0.00000000
Si       1.09294497      -1.53658683      -1.39441949       0.00000000
Si      -1.96046892      -1.18550475       0.68039124       0.00000000
Si      -0.01016496       1.68114429      -1.75388057       0.00000000
Si       3.08969172       1.42789995      -0.39916378       0.00000000
Si      -1.02315861      -2.01868938      -2.63230281       0.00000000
Si      -1.68712272      -3.10475997      -0.60936063       0.00000000
Si       1.85282460      -1.72206477       2.62716765       0.00000000
Si       2.89699731      -0.14367780      -2.24857897       0.00000000
Si       1.64923218       3.23149617      -1.04695193       0.00000000
