10
Lattice="16.28999089631971 0.0 0.0 0.0 16.28999089631971 0.0 0.0 0.0 34.46413024517268" Properties=species:S:1:pos:R:3:initial_magmoms:R:1 pbc="T T T"
Si       1.63734048       1.55435922       0.74452902       0.00000000
Si      -1.47497805      -0.92569554       1.62298573       0.00000000
Si       1.31610168      -1.92881745      -0.55001336       0.00000000
Si      -1.22450301       0.58583727      -1.98751304       0.00000000
Si       0.23302845      -0.25195743      -3.59343901       0.00000000
Si      -1.77938928      -3.08757402       0.75569541       0.00000000
Si       3.10735008       1.68019947      -1.17788124       0.00000000
Si       0.87114033      -2.36810988      -2.85266658       0.00000000
Si       0.46527498       3.61323603       1.21510252       0.00000000
Si       2.51512713       0.64246131       2.83464183       0.00000000
