10
Lattice="16.28999089631971 0.0 0.0 0.0 16.28999089631971 0.0 0.0 0.0 34.46413024517268" Properties=species:S:1:pos:R:3:initial_magmoms:R:1 pbc="T T T"
Si      -0.35242112       2.31396192      -0.24641867       0.00000000
Si       0.68560212      -0.46558449       2.21490750       0.00000000
Si      -1.86752048      -1.13430528      -0.93284113       0.00000000
Si       2.06935617      -0.52867566      -1.16733521       0.00000000
Si       1.99927659       1.46096865       2.11299701       0.00000000
Si       2.05435308      -2.72509708      -0.38341366       0.00000000
Si       1.52020398       0.87048873      -2.98821408       0.00000000
Si       1.51463280       2.72668536      -1.55005959       0.00000000
Si       0.29786917       3.02560686       1.87354010       0.00000000
Si       2.23877217      -2.22433271       1.94005590       0.00000000
