10
Lattice="16.28999089631971 0.0 0.0 0.0 16.28999089631971 0.0 0.0 0.0 34.46413024517268" Properties=species:S:1:pos:R:3:initial_magmoms:R:1 pbc="T T T"
Si       1.35703845       1.35567249      -1.35747392       0.00000000
Si       1.35770634      -1.35785295       1.35709482       0.00000000
Si      -1.35742941      -1.35907470      -1.35706035       0.00000000
Si      -1.35840681       1.35758208       1.35788749       0.00000000
Si       0.00162900      -2.71393029       2.71425856       0.00000000
Si      -0.00136836       2.71346344       2.71512016       0.00000000
Si      -0.00278559      -2.71510317      -2.71412070       0.00000000
Si      -2.71526281      -0.00223173       2.71425856       0.00000000
Si       2.71487511       2.71466564      -0.00003446       0.00000000
Si       2.71471221      -2.71492398       0.00062035       0.00000000
