10
Lattice="16.28999089631971 0.0 0.0 0.0 16.28999089631971 0.0 0.0 0.0 34.46413024517268" Properties=species:S:1:pos:R:3:initial_magmoms:R:1 pbc="T T T"
Si      -1.59889608      -1.50767208       0.78237066       0.00000000
Si       0.79022790       1.42216587       1.69032868       0.00000000
Si       2.08062396      -0.48154869      -0.98319326       0.00000000
Si      -1.34610786       0.79043967      -1.95466870       0.00000000
Si       1.35550719       3.39645915       0.59247319       0.00000000
Si      -2.61900846      -0.47568429       2.67975994       0.00000000
Si       2.84236065      -2.57416209      -0.21329862       0.00000000
Si       1.74812877      -1.21192713      -3.22136405       0.00000000
Si      -0.65920743      -3.51502362       1.46472635       0.00000000
Si       0.32348682       2.17227150      -3.19396506       0.00000000
