10
Lattice="16.28999089631971 0.0 0.0 0.0 16.28999089631971 0.0 0.0 0.0 34.46413024517268" Properties=species:S:1:pos:R:3:initial_magmoms:R:1 pbc="T T T"
Si       0.75326589      -2.15433621      -0.60260565       0.00000000
Si       1.21754718       1.82070072      -0.91840066       0.00000000
Si      -2.31689412      -0.61338366      -0.26882037       0.00000000
Si       0.20349468       0.32219991       2.44199178       0.00000000
Si       3.39651387       1.06144011      -0.17876554       0.00000000
Si      -2.25354231      -1.46595339      -2.45370959       0.00000000
Si       0.48826017       3.60305056       0.54094929       0.00000000
Si      -0.09062127      -2.39420646      -2.80955193       0.00000000
Si      -2.42994672      -2.49541623       1.23678047       0.00000000
Si      -0.33743106      -3.64358430       0.87573404       0.00000000
