10
Lattice="16.28999089631971 0.0 0.0 0.0 16.28999089631971 0.0 0.0 0.0 34.46413024517268" Properties=species:S:1:pos:R:3:initial_magmoms:R:1 pbc="T T T"
Si       1.35759231      -1.35719472      -1.35712928       0.00000000
Si      -1.35747828       1.35750350      -1.35757731       0.00000000
Si       1.35834165       1.35778369       1.35740499       0.00000000
Si      -1.35721764      -1.35927984       1.35706035       0.00000000
Si       0.00565263      -2.71343496       2.71374160       0.00000000
Si       2.71287144      -0.00123734      -2.71439642       0.00000000
Si      -0.00114030       2.71343911      -2.71470659       0.00000000
Si      -2.71464705      -2.71501509      -0.00044803       0.00000000
Si      -2.71531494      -0.00148965      -2.71501677       0.00000000
Si       2.71528236       2.71516585       0.00010339       0.00000000
