10
Lattice="16.28999089631971 0.0 0.0 0.0 16.28999089631971 0.0 0.0 0.0 34.46413024517268" Properties=species:S:1:pos:R:3:initial_magmoms:R:1 pbc="T T T"
Si      -1.23878934       1.29874631       1.50015550       0.00000000
Si       1.63908351      -1.26243900       1.20617630       0.00000000
Si      -1.45668438      -1.61650298      -1.05477530       0.00000000
Si       1.25452548       1.58694899      -1.33879435       0.00000000
Si      -2.24067484       2.54638112      -0.28446709       0.00000000
Si       0.19635966      -2.73772739       2.63929701       0.00000000
Si      -0.11166795       3.79440689      -0.53677913       0.00000000
Si      -2.59810839      -0.07500893       2.85914037       0.00000000
Si       3.35585403      -1.84866806      -0.50303873       0.00000000
Si       0.23224653       2.64247583       2.81982367       0.00000000
