10
Lattice="16.28999089631971 0.0 0.0 0.0 16.28999089631971 0.0 0.0 0.0 34.46413024517268" Properties=species:S:1:pos:R:3:initial_magmoms:R:1 pbc="T T T"
Si       1.51526322      -1.09501936       1.62260356       0.00000000
Si      -1.22313465       1.73258974       1.35027091       0.00000000
Si       1.43110908       0.68450906      -2.10896470       0.00000000
Si      -2.44398870      -1.10207293      -0.44882662       0.00000000
Si      -0.65423898       1.46328346      -2.81465263       0.00000000
Si       0.17967870      -3.35405140      -1.01645116       0.00000000
Si      -0.27064206      -2.15017153       2.85642459       0.00000000
Si      -2.40963309      -0.14823248      -2.79087236       0.00000000
Si       2.57087151       0.68735003       2.89551383       0.00000000
Si      -2.53860102       3.11717458      -0.05793424       0.00000000
