10
Lattice="16.28999089631971 0.0 0.0 0.0 16.28999089631971 0.0 0.0 0.0 34.46413024517268" Properties=species:S:1:pos:R:3:initial_magmoms:R:1 pbc="T T T"
Si       1.35365013       1.35044100       1.38162984       0.00000000
Si      -1.36508082      -1.36329381       1.37952753       0.00000000
Si       1.36964691      -1.41185430      -1.38389069       0.00000000
Si      -1.34921273       1.40815647      -1.44475093       0.00000000
Si       2.71795392       2.69309538      -0.00367732       0.00000000
Si      -2.73053699      -2.69966025       0.00414604       0.00000000
Si      -2.73862023       2.70497079      -0.00363252       0.00000000
Si      -0.00498474       2.70835911       2.73941394       0.00000000
Si       2.70932022      -0.00584811       2.74065465       0.00000000
Si       2.72733696      -2.73173526       0.01247947       0.00000000
