10
Lattice="16.28999089631971 0.0 0.0 0.0 16.28999089631971 0.0 0.0 0.0 34.46413024517268" Properties=species:S:1:pos:R:3:initial_magmoms:R:1 pbc="T T T"
Si       0.76784544      -2.06987256       0.77899317       0.00000000
Si      -1.67073498      -0.59546466      -1.57359860       0.00000000
Si      -1.16129781       1.58405589       1.40482766       0.00000000
Si       2.12079510       1.10263752      -0.47067689       0.00000000
Si      -0.32322618       3.45603753       0.25861898       0.00000000
Si      -2.63593377       1.52876763      -2.02859430       0.00000000
Si      -0.76818753       3.01674510      -2.04403424       0.00000000
Si       0.81063927      -1.87406676       3.13858117       0.00000000
Si       3.00648240      -2.34960444       0.25172615       0.00000000
Si       2.01409560       3.27572352       0.48215345       0.00000000
