10
Lattice="16.28999089631971 0.0 0.0 0.0 16.28999089631971 0.0 0.0 0.0 34.46413024517268" Properties=species:S:1:pos:R:3:initial_magmoms:R:1 pbc="T T T"
Si      -0.04279383      -0.19580580      -2.35958800       0.00000000
Si      -1.54812015      -1.76200785       0.37627958       0.00000000
Si       2.21674320      -0.46880991       0.72374714       0.00000000
Si      -0.06897186       2.06320995       1.20769273       0.00000000
Si       2.90305719      -1.81138284      -1.04609033       0.00000000
Si       2.19584313      -0.47553768      -2.88685502       0.00000000
Si      -0.60097068      -3.48644770      -0.98691539       0.00000000
Si      -0.81063927       1.87406676      -3.13858117       0.00000000
Si      -0.31846950       1.34395758       3.50272937       0.00000000
Si      -1.59066963      -2.34799173       2.61975786       0.00000000
