10
Lattice="16.28999089631971 0.0 0.0 0.0 16.28999089631971 0.0 0.0 0.0 34.46413024517268" Properties=species:S:1:pos:R:3:initial_magmoms:R:1 pbc="T T T"
Si       1.70818569      -1.65437982       0.23753833       0.00000000
Si      -1.90659789      -0.88822854       1.19833368       0.00000000
Si       0.76927896       1.91638818       1.30009598       0.00000000
Si       0.78079599       0.21150936      -2.32633009       0.00000000
Si       2.12887494       0.58630968       2.70826666       0.00000000
Si      -0.60352821      -2.15697519       2.71095142       0.00000000
Si       3.56923674      -0.56242854       1.17604572       0.00000000
Si      -1.18457622       0.92924676      -3.48952960       0.00000000
Si       0.76833414      -3.53863598       1.33766535       0.00000000
Si       2.08013526       2.42548326      -2.22917565       0.00000000
