10
Lattice="16.28999089631971 0.0 0.0 0.0 16.28999089631971 0.0 0.0 0.0 34.46413024517268" Properties=species:S:1:pos:R:3:initial_magmoms:R:1 pbc="T T T"
Si      -1.34136407      -1.35066906       1.38788164       0.00000000
Si       1.37557240       1.36345671       1.38212613       0.00000000
Si       1.38940749      -1.29681432      -1.44111841       0.00000000
Si      -1.33686803       1.29002139      -1.60908634       0.00000000
Si       2.31208287       0.46296180      -2.68851870       0.00000000
Si       0.52319163       2.10409785      -2.99638695       0.00000000
Si      -2.68271525      -2.69360037       0.01182120       0.00000000
Si      -2.67028598       2.71010214       0.00132342       0.00000000
Si      -2.69530742       0.00301365       2.74459735       0.00000000
Si       2.73862023      -2.70497079       0.00363252       0.00000000
