10
Lattice="16.28999089631971 0.0 0.0 0.0 16.28999089631971 0.0 0.0 0.0 34.46413024517268" Properties=species:S:1:pos:R:3:initial_magmoms:R:1 pbc="T T T"
Si      -1.35677781       1.35682668      -1.35685357       0.00000000
Si      -1.35752715      -1.35783666       1.35795642       0.00000000
Si       1.35816246      -1.35791811      -1.35730160       0.00000000
Si       1.35816246       1.35777150       1.35747392       0.00000000
Si      -2.71441899       2.71381626      -0.00017232       0.00000000
Si      -0.00076563      -2.71435383      -2.71436195       0.00000000
Si      -0.00172674       2.71503801      -2.71394838       0.00000000
Si      -2.71477737      -0.00115659      -2.71429302       0.00000000
Si       2.71513575       2.71437012      -0.00010339       0.00000000
Si      -0.00128691       2.71324611       2.71636087       0.00000000
