10
Lattice="16.28999089631971 0.0 0.0 0.0 16.28999089631971 0.0 0.0 0.0 34.46413024517268" Properties=species:S:1:pos:R:3:initial_magmoms:R:1 pbc="T T T"
Si       1.26418545      -1.33563339      -1.45841941       0.00000000
Si       1.95374115       0.65894679       1.23660815       0.00000000
Si      -1.44546057       1.37197638      -1.42667793       0.00000000
Si      -0.84242106      -1.71923031       1.59596584       0.00000000
Si      -0.64972665      -0.14765256       3.44538103       0.00000000
Si       2.56468131      -2.67239079      -0.02284973       0.00000000
Si       2.62514979       2.63195901      -0.01464726       0.00000000
Si       0.87413769      -3.42907758       1.47875326       0.00000000
Si       2.62648557       0.01729998      -2.80607105       0.00000000
Si      -2.75566527      -2.69728191      -0.01157995       0.00000000
