10
Lattice="16.28999089631971 0.0 0.0 0.0 16.28999089631971 0.0 0.0 0.0 34.46413024517268" Properties=species:S:1:pos:R:3:initial_magmoms:R:1 pbc="T T T"
Si      -0.63811188       2.11615245      -0.74077243       0.00000000
Si       1.88112033      -0.04883742      -1.45642049       0.00000000
Si       0.44496135       0.43929243       2.30265322       0.00000000
Si      -1.86774624      -1.48797747       0.01543994       0.00000000
Si      -2.09564334       2.95394715       0.86515355       0.00000000
Si       0.76818753      -3.01674510       2.04403424       0.00000000
Si      -0.90254745      -3.61220976       0.47043564       0.00000000
Si      -0.39311028      -1.43268921       3.44886191       0.00000000
Si       2.78228313       0.25897842       2.52618769       0.00000000
Si      -1.77872139       1.79813907      -2.80634677       0.00000000
