10
Lattice="16.28999089631971 0.0 0.0 0.0 16.28999089631971 0.0 0.0 0.0 34.46413024517268" Properties=species:S:1:pos:R:3:initial_magmoms:R:1 pbc="T T T"
Si       1.45529973      -1.22168484       1.41563217       0.00000000
Si      -1.21249728      -1.35550719      -1.54178961       0.00000000
Si      -1.24480035       1.50553068       1.41247526       0.00000000
Si       1.78590528       1.05515217      -1.23382103       0.00000000
Si       0.27064206       2.15017153      -2.85642459       0.00000000
Si      -2.62327644      -2.58709635      -0.00290533       0.00000000
Si       0.12137679      -2.55819789       2.78681938       0.00000000
Si      -2.59911837       0.15737769       2.78264922       0.00000000
Si      -2.53747701       2.86381036      -0.03074547       0.00000000
Si       2.71990872      -2.71503801       0.04069871       0.00000000
