10
Lattice="16.28999089631971 0.0 0.0 0.0 16.28999089631971 0.0 0.0 0.0 34.46413024517268" Properties=species:S:1:pos:R:3:initial_magmoms:R:1 pbc="T T T"
Si      -1.78590528      -1.05515217       1.23382103       0.00000000
Si       1.05560829       1.78236939       1.27291027       0.00000000
Si      -1.51526322       1.09501936      -1.62260356       0.00000000
Si       1.83049101      -2.00047716      -0.12458484       0.00000000
Si      -0.33060555      -2.27683701       2.64945321       0.00000000
Si       2.40614703       0.45828571       2.66374893       0.00000000
Si      -1.33558452      -2.25903204      -2.63905472       0.00000000
Si      -2.99840256      -2.41065936      -0.30796858       0.00000000
Si       3.58961553      -0.97485876       1.23580617       0.00000000
Si      -2.73839787       2.82760910      -0.27233265       0.00000000
