10
Lattice="16.28999089631971 0.0 0.0 0.0 16.28999089631971 0.0 0.0 0.0 34.46413024517268" Properties=species:S:1:pos:R:3:initial_magmoms:R:1 pbc="T T T"
Si      -0.56971017      -0.60984873      -2.24630434       0.00000000
Si       2.19063033       1.05458595      -0.03260309       0.00000000
Si      -1.04304870       2.18917630       0.19778975       0.00000000
Si      -1.72095705      -0.83929338       1.61926360       0.00000000
Si       1.01299365      -2.14205355       0.94369734       0.00000000
Si       2.63292012      -2.29371345      -0.69400458       0.00000000
Si       1.36787130      -1.96478577      -2.67214337       0.00000000
Si      -3.10106214       1.65805551      -0.73632655       0.00000000
Si      -3.66634143      -0.31623777       0.36152893       0.00000000
Si      -1.12783815       2.68683092       2.51681345       0.00000000
