10
Lattice="16.28999089631971 0.0 0.0 0.0 16.28999089631971 0.0 0.0 0.0 34.46413024517268" Properties=species:S:1:pos:R:3:initial_magmoms:R:1 pbc="T T T"
Si       1.61992647      -0.15165990      -1.63770192       0.00000000
Si      -1.48659282      -1.85249880      -0.42022137       0.00000000
Si       1.38772881       0.07965810       1.99533640       0.00000000
Si      -1.01299365       2.14205355      -0.94369734       0.00000000
Si      -2.73395070       1.30276017       0.67556626       0.00000000
Si       2.40529995      -2.15327736      -0.69011013       0.00000000
Si      -2.94412428      -1.01470410       1.18570460       0.00000000
Si       1.17763668       3.19663950      -0.97630043       0.00000000
Si       0.35487765       0.17726778      -3.61584071       0.00000000
Si       2.83537224      -1.84041162       1.67464749       0.00000000
