10
Lattice="16.28999089631971 0.0 0.0 0.0 16.28999089631971 0.0 0.0 0.0 34.46413024517268" Properties=species:S:1:pos:R:3:initial_magmoms:R:1 pbc="T T T"
Si      -1.60243101      -0.93332156      -1.37987562       0.00000000
Si       1.87596033      -1.48545482       0.25820541       0.00000000
Si      -1.35586557       0.05689282       2.01994380       0.00000000
Si       1.12014927       1.74243216      -1.37832473       0.00000000
Si       0.27347652       1.21066140       3.14154508       0.00000000
Si      -0.18135657      -2.21407394      -2.74665486       0.00000000
Si       2.54814763       0.50486782      -2.75658053       0.00000000
Si      -3.27982860      -1.95617066       0.00344641       0.00000000
Si       1.24571049      -3.46842023      -1.26366251       0.00000000
Si       2.03739423      -1.75340903       2.87803220       0.00000000
