10
Lattice="16.28999089631971 0.0 0.0 0.0 16.28999089631971 0.0 0.0 0.0 34.46413024517268" Properties=species:S:1:pos:R:3:initial_magmoms:R:1 pbc="T T T"
Si      -0.37589175      -1.53196552       1.79503076       0.00000000
Si       1.67065746       1.70662185       0.18524480       0.00000000
Si      -2.09222244       1.25208198       0.14499068       0.00000000
Si       1.20816414      -1.57142658      -1.43794771       0.00000000
Si      -1.41297831      -3.25183328       0.56900311       0.00000000
Si      -2.10935952       2.28297834      -2.00484851       0.00000000
Si       1.66617445      -2.31784613       2.45312370       0.00000000
Si      -3.02632362      -2.09789855      -0.80718485       0.00000000
Si       0.29809071      -3.70712249      -0.96282494       0.00000000
Si       3.31982774       1.29336084      -1.49891479       0.00000000
