10
Lattice="16.28999089631971 0.0 0.0 0.0 16.28999089631971 0.0 0.0 0.0 34.46413024517268" Properties=species:S:1:pos:R:3:initial_magmoms:R:1 pbc="T T T"
Si       1.35708732       1.35606105       1.35730160       0.00000000
Si       1.35747828      -1.35685926      -1.35764624       0.00000000
Si      -1.35726651       1.35791811      -1.35733606       0.00000000
Si      -1.35747828      -1.35773892       1.35737053       0.00000000
Si       2.71491188       0.00122175      -2.71301785       0.00000000
Si       0.00078192       2.71417464      -2.71381052       0.00000000
Si      -0.00021177      -2.71564074      -2.71377606       0.00000000
Si      -2.71503801      -2.71451673       0.00017232       0.00000000
Si       2.71509016      -2.71463076       0.00020678       0.00000000
Si       2.71495215       2.71523349       0.00044803       0.00000000
