10
Lattice="16.28999089631971 0.0 0.0 0.0 16.28999089631971 0.0 0.0 0.0 34.46413024517268" Properties=species:S:1:pos:R:3:initial_magmoms:R:1 pbc="T T T"
Si      -1.35755973      -1.35677781      -1.35719821       0.00000000
Si      -1.35620766       1.35513252       1.36023105       0.00000000
Si       1.35747828       1.35773892      -1.35737053       0.00000000
Si       1.35734796      -1.35650088       1.35943838       0.00000000
Si       2.71477737      -2.71337969      -0.00017232       0.00000000
Si       2.71456560       2.71379997      -0.00006893       0.00000000
Si      -2.71450044      -2.71415998       0.00010339       0.00000000
Si      -0.00042354      -2.71459329      -2.71480998       0.00000000
Si      -2.71477737       0.00021177      -2.71491338       0.00000000
Si       2.71495656       0.00087966      -2.71501677       0.00000000
