10
Lattice="16.28999089631971 0.0 0.0 0.0 16.28999089631971 0.0 0.0 0.0 34.46413024517268" Properties=species:S:1:pos:R:3:initial_magmoms:R:1 pbc="T T T"
Si      -1.36143675       1.76174721      -0.71461414       0.00000000
Si      -0.35357445      -0.10352295       2.31516371       0.00000000
Si      -0.82930761      -1.93872177      -1.07528146       0.00000000
Si       2.17655577       0.79495200      -0.55290835       0.00000000
Si       3.03595101      -1.47191553       1.01472795       0.00000000
Si       1.54116432      -1.45500651       2.84370590       0.00000000
Si       0.01122381       3.62595852      -0.26885483       0.00000000
Si      -0.44466813      -1.18314270      -3.43631695       0.00000000
Si       1.72509471       2.86919028      -1.66913322       0.00000000
Si      -3.24255708       1.81058463       0.74180635       0.00000000
