10
Lattice="16.28999089631971 0.0 0.0 0.0 16.28999089631971 0.0 0.0 0.0 34.46413024517268" Properties=species:S:1:pos:R:3:initial_magmoms:R:1 pbc="T T T"
Si      -1.00905147      -2.10075840       0.19386084       0.00000000
Si       1.26022698       0.52561314       1.89894017       0.00000000
Si       1.49478669      -0.01690902      -1.82897795       0.00000000
Si      -1.89473877       1.35148356      -0.52854220       0.00000000
Si      -1.54116432       1.45500651      -2.84370590       0.00000000
Si       1.39704669       2.87135685       1.93292183       0.00000000
Si       2.43584370       2.14812972      -1.91238119       0.00000000
Si      -0.48439944      -3.33668070      -1.72992798       0.00000000
Si      -3.24768843      -1.82102652       0.72112786       0.00000000
Si       3.40301262      -0.30410172       1.84907055       0.00000000
