10
Lattice="16.28999089631971 0.0 0.0 0.0 16.28999089631971 0.0 0.0 0.0 34.46413024517268" Properties=species:S:1:pos:R:3:initial_magmoms:R:1 pbc="T T T"
Si      -2.37117240       0.24501789       0.30424951       0.00000000
Si       1.00066605       2.22267276      -0.37207496       0.00000000
Si       0.16229727      -1.34327340      -2.16876000       0.00000000
Si       0.60505362      -1.52003619       2.02859430       0.00000000
Si       1.99562830      -3.11347512       0.74532170       0.00000000
Si      -3.04533405       1.78123005      -1.36126498       0.00000000
Si       3.18229127       1.83989034      -1.18205140       0.00000000
Si      -2.84526027       1.42959411       2.42241614       0.00000000
Si       0.88347416       3.20354253       2.23348367       0.00000000
Si       2.67236540       1.56240648       2.54135192       0.00000000
