10
Lattice="16.28999089631971 0.0 0.0 0.0 16.28999089631971 0.0 0.0 0.0 34.46413024517268" Properties=species:S:1:pos:R:3:initial_magmoms:R:1 pbc="T T T"
Si       1.35697329       1.35659862      -1.35757731       0.00000000
Si      -1.35816246      -1.35777150      -1.35747392       0.00000000
Si      -1.35944937       1.35547461       1.35888695       0.00000000
Si       1.35757602      -1.35896067       1.36088587       0.00000000
Si       2.71254564       2.71542897      -0.00103392       0.00000000
Si      -2.72174949       0.00254124       2.70653859       0.00000000
Si      -0.00083079       2.71415835      -2.71436195       0.00000000
Si      -2.71494027      -0.00094482      -2.71432749       0.00000000
Si       2.71464705      -0.00100998      -2.71467213       0.00000000
Si       0.00000000      -2.71568961      -2.71477552       0.00000000
