10
Lattice="16.28999089631971 0.0 0.0 0.0 16.28999089631971 0.0 0.0 0.0 34.46413024517268" Properties=species:S:1:pos:R:3:initial_magmoms:R:1 pbc="T T T"
Si       1.17190260      -0.18847530      -2.03169608       0.00000000
Si       1.43290098       1.62044775       1.25466736       0.00000000
Si      -1.84595022       1.72397070       0.01526762       0.00000000
Si      -1.08936117      -2.26830105       0.38189724       0.00000000
Si       2.77866090      -1.64180394      -0.86370605       0.00000000
Si      -0.42893199       3.08307798       1.24953220       0.00000000
Si       1.46943945       0.05991462       3.03546443       0.00000000
Si      -0.08821035      -1.67829354       2.98070090       0.00000000
Si      -0.43947162      -1.20976056      -3.37528095       0.00000000
Si      -2.04110442      -2.25644193      -2.02838752       0.00000000
