10
Lattice="16.28999089631971 0.0 0.0 0.0 16.28999089631971 0.0 0.0 0.0 34.46413024517268" Properties=species:S:1:pos:R:3:initial_magmoms:R:1 pbc="T T T"
Si       1.85436661       0.92038500       1.08682695       0.00000000
Si       1.31108697      -1.32471909      -1.42726382       0.00000000
Si      -1.37260812       1.38461742      -1.42195634       0.00000000
Si      -1.23318201      -1.33757190       1.59699976       0.00000000
Si       0.52461717       2.33531811       2.38454004       0.00000000
Si       3.43474096      -0.84958866       1.24012349       0.00000000
Si      -2.70006393      -2.61964377       0.00365320       0.00000000
Si       2.62889095      -2.71425609      -0.07630363       0.00000000
Si      -0.03239260      -2.66862780      -2.78098115       0.00000000
Si       2.68015558       0.04683375      -2.77636296       0.00000000
