10
Lattice="16.28999089631971 0.0 0.0 0.0 16.28999089631971 0.0 0.0 0.0 34.46413024517268" Properties=species:S:1:pos:R:3:initial_magmoms:R:1 pbc="T T T"
Si      -2.23803423       0.72115830       0.00399784       0.00000000
Si       1.40572926       1.76308299      -0.70868631       0.00000000
Si       0.04642650      -2.13034104      -1.08276019       0.00000000
Si       0.88076772      -0.65792052       2.13670834       0.00000000
Si      -3.17567034      -1.31066082       0.94786750       0.00000000
Si       2.32099920       2.65085541       1.26507554       0.00000000
Si       3.20929290       0.80060463      -1.82577278       0.00000000
Si       3.19003812      -0.95104278       1.79192899       0.00000000
Si      -0.03111390      -2.80381851       2.59687367       0.00000000
Si       3.68460319      -1.14590376      -0.51075870       0.00000000
