10
Lattice="16.28999089631971 0.0 0.0 0.0 16.28999089631971 0.0 0.0 0.0 34.46413024517268" Properties=species:S:1:pos:R:3:initial_magmoms:R:1 pbc="T T T"
Si      -1.86183297       1.46263023      -0.00513516       0.00000000
Si       0.03653847      -1.56053313       1.78079707       0.00000000
Si       1.64345316       1.68200766      -0.29080849       0.00000000
Si      -1.43290098      -1.62044775      -1.25466736       0.00000000
Si       2.30015682      -0.86263695      -1.59627601       0.00000000
Si       2.02450069      -2.08402857       0.64654744       0.00000000
Si      -3.27885120       0.10352295      -1.23939974       0.00000000
Si      -2.69167815       1.38246714       2.17520480       0.00000000
Si      -0.26099838      -1.80892305      -3.28636344       0.00000000
Si       1.48201926       1.94996187      -2.91063528       0.00000000
