10
Lattice="16.28999089631971 0.0 0.0 0.0 16.28999089631971 0.0 0.0 0.0 34.46413024517268" Properties=species:S:1:pos:R:3:initial_magmoms:R:1 pbc="T T T"
Si       1.80356364      -0.96247836      -1.11708648       0.00000000
Si       0.91526994       0.88777242       1.97376184       0.00000000
Si      -1.40572926      -1.76308299       0.70868631       0.00000000
Si      -0.61525701       1.93031613      -1.22206428       0.00000000
Si       1.45751517       3.07430486      -0.88021438       0.00000000
Si       2.27887393      -2.90898675       0.19792761       0.00000000
Si       0.77010975      -1.64133153      -3.23980237       0.00000000
Si      -0.52496154      -2.42100351       2.84539465       0.00000000
Si       1.82534337       3.02346833       1.49863908       0.00000000
Si      -0.79579908       1.34306163       3.50558990       0.00000000
