10
Lattice="16.28999089631971 0.0 0.0 0.0 16.28999089631971 0.0 0.0 0.0 34.46413024517268" Properties=species:S:1:pos:R:3:initial_magmoms:R:1 pbc="T T T"
Si       1.04350482      -0.25065423       2.05520063       0.00000000
Si       0.40684275      -1.66615749      -1.56288025       0.00000000
Si      -2.25457577      -0.16197147       0.73898029       0.00000000
Si       1.53556056       1.81276749      -0.57885986       0.00000000
Si      -0.08666280       1.56512691       3.03729103       0.00000000
Si       0.33319566      -0.30113694      -3.53760709       0.00000000
Si      -2.40063191       1.28194155       2.54297174       0.00000000
Si       3.29514120       0.42847587       2.01025938       0.00000000
Si       2.53309500      -2.59493184      -1.41578726       0.00000000
Si       0.57964707      -2.20147947       3.19679112       0.00000000
