10
Lattice="16.28999089631971 0.0 0.0 0.0 16.28999089631971 0.0 0.0 0.0 34.46413024517268" Properties=species:S:1:pos:R:3:initial_magmoms:R:1 pbc="T T T"
Si      -1.42799836       1.23756433       1.37825580       0.00000000
Si      -1.36490719      -1.34491284      -1.35630214       0.00000000
Si       1.34666824       1.36912237      -1.35661232       0.00000000
Si       1.26194395      -1.17848702       1.64945420       0.00000000
Si       0.17886257       2.38967458       2.73807329       0.00000000
Si      -0.67218730      -1.99032264       3.01478594       0.00000000
Si       2.08261786       0.64335400       3.06572396       0.00000000
Si      -2.54814763      -0.50486782       2.75658053       0.00000000
Si       2.68399579      -2.68456986       0.02867417       0.00000000
Si       2.70341347       0.01162617      -2.71436195       0.00000000
