10
Lattice="16.28999089631971 0.0 0.0 0.0 16.28999089631971 0.0 0.0 0.0 34.46413024517268" Properties=species:S:1:pos:R:3:initial_magmoms:R:1 pbc="T T T"
Si       1.52601462       1.79694990       0.06258690       0.00000000
Si      -2.18162522       0.38278242       0.80997644       0.00000000
Si       0.18345798      -0.51996051      -2.31292354       0.00000000
Si      -1.24150814      -2.40230259      -2.38846895       0.00000000
Si      -3.00647330       1.79411544      -0.98415825       0.00000000
Si       3.61853028       0.64878183      -0.29845953       0.00000000
Si      -0.50992587      -0.27748386       3.72340332       0.00000000
Si      -3.18229127      -1.83989034       1.18205140       0.00000000
Si      -0.21098808       1.32300864      -3.69366076       0.00000000
Si       2.32736859      -1.28093157      -3.14554293       0.00000000
