10
Lattice="16.28999089631971 0.0 0.0 0.0 16.28999089631971 0.0 0.0 0.0 34.46413024517268" Properties=species:S:1:pos:R:3:initial_magmoms:R:1 pbc="T T T"
Si       1.35464382      -1.35602847      -1.35706035       0.00000000
Si      -1.35741964      -1.35638685       1.35733606       0.00000000
Si       1.35742941       1.35907470       1.35706035       0.00000000
Si      -1.35611807       1.35835794      -1.36102373       0.00000000
Si      -0.00311139      -2.70023040      -2.71929377       0.00000000
Si       2.71427238      -2.71327869       0.00082714       0.00000000
Si       0.00022806      -2.71376739       2.71536141       0.00000000
Si       2.71446786       2.71474719      -0.00041357       0.00000000
Si       2.71513575       0.00122175       2.71415517       0.00000000
Si      -2.71614667      -2.71358820      -0.00034464       0.00000000
