10
Lattice="16.28999089631971 0.0 0.0 0.0 16.28999089631971 0.0 0.0 0.0 34.46413024517268" Properties=species:S:1:pos:R:3:initial_magmoms:R:1 pbc="T T T"
Si      -1.87596033       1.48545482      -0.25820541       0.00000000
Si       1.93413125       0.81183563      -1.36533175       0.00000000
Si      -0.63024984      -1.98296541      -1.52186791       0.00000000
Si       0.16143390      -0.26795421       2.61982679       0.00000000
Si       0.81813756      -2.81259882       1.31435927       0.00000000
Si       2.35201862      -1.14456798       2.49989155       0.00000000
Si       0.67218730       1.99032264      -3.01478594       0.00000000
Si      -0.75581106       3.22788698      -1.63653014       0.00000000
Si      -2.05731690      -0.72861912      -3.00486027       0.00000000
Si      -1.48201926      -1.94996187       2.91063528       0.00000000
