10
Lattice="16.2900001489832 0.0 0.0 0.0 16.2900001489832 0.0 0.0 0.0 29.41385946727247" Properties=species:S:1:pos:R:3:initial_magmoms:R:1 pbc="T T T"
Si      -0.29136294       1.48735846       0.14656926       0.00000000
H        0.08219934      -1.41364621      -1.61482088       0.00000000
H        0.94781248       2.00849186      -0.57539392       0.00000000
H        1.00600688       0.55579852      -2.12359241       0.00000000
Si      -0.11468160      -2.89204518      -1.37609800       0.00000000
Si      -2.21486987       2.17082171      -1.12990400       0.00000000
Si      -0.57891403       2.33069177       2.35975629       0.00000000
Si       1.29687460       0.23571630      -3.57807835       0.00000000
H       -2.27230841      -0.89824690       2.97200577       0.00000000
Si       1.61898655      -3.58332111       0.05765116       0.00000000
