10
Lattice="16.2900001489832 0.0 0.0 0.0 16.2900001489832 0.0 0.0 0.0 29.41385946727247" Properties=species:S:1:pos:R:3:initial_magmoms:R:1 pbc="T T T"
Si       1.75690910      -1.51676191      -0.23419315       0.00000000
Si      -1.27795051      -1.08528868       1.68211980       0.00000000
Si       0.64918909       1.50848659       1.72788776       0.00000000
Si      -0.89994106       0.66627730      -2.12509252       0.00000000
H        1.94295719       1.04539447      -1.12369767       0.00000000
H        2.66672189      -1.12420549      -1.40198220       0.00000000
Si      -0.30516057       0.21128130       3.42930305       0.00000000
Si       2.97388614      -1.06305283       1.75356606       0.00000000
Si      -3.42611283      -0.25234839       1.49401816       0.00000000
Si       2.58149261       1.23365800      -2.48714772       0.00000000
