10
Lattice="16.2900001489832 0.0 0.0 0.0 16.2900001489832 0.0 0.0 0.0 29.41385946727247" Properties=species:S:1:pos:R:3:initial_magmoms:R:1 pbc="T T T"
Si      -1.32835047       1.34312680      -1.42157183       0.00000000
Si      -1.51337229      -1.08121618       1.48331152       0.00000000
Si       1.24561291      -1.40645744      -1.47651692       0.00000000
Si       1.94497845       0.83945629       1.12819799       0.00000000
Si      -0.06701739      -2.53438845       2.72960616       0.00000000
Si      -2.76693667      -2.57342255       0.01117727       0.00000000
Si       2.59946179      -2.75013077      -0.09591860       0.00000000
Si      -2.74712803       2.69640227      -0.09583035       0.00000000
Si       2.87819998       2.57927717      -0.17242404       0.00000000
Si       3.55879619      -0.99768106       1.14861121       0.00000000
