10
Lattice="16.2900001489832 0.0 0.0 0.0 16.2900001489832 0.0 0.0 0.0 29.41385946727247" Properties=species:S:1:pos:R:3:initial_magmoms:R:1 pbc="T T T"
Si       1.30899925       1.33768594       1.41089460       0.00000000
Si      -1.29121057       1.38463372      -1.39498170       0.00000000
Si       1.36337527      -1.31053377      -1.44160267       0.00000000
Si      -1.34133490      -1.33316873       1.45948629       0.00000000
Si      -2.68705181      -0.05194881      -2.59109924       0.00000000
Si       2.68234400      -2.64198651       0.00755936       0.00000000
Si      -2.65880495       2.73566118      -0.05529806       0.00000000
Si       2.68099193       2.74128123       0.00211780       0.00000000
Si      -2.72872163      -2.71839166       0.10665465       0.00000000
Si      -0.01759320      -2.69879414      -2.79100759       0.00000000
