10
Lattice="16.2900001489832 0.0 0.0 0.0 16.2900001489832 0.0 0.0 0.0 29.41385946727247" Properties=species:S:1:pos:R:3:initial_magmoms:R:1 pbc="T T T"
Si      -0.62097481       1.97978888       1.19467332       0.00000000
Si       1.92350693      -0.68346325       1.27647326       0.00000000
Si       0.03044601       1.22885245      -2.08182473       0.00000000
Si      -1.71852986      -1.72569746       0.06194559       0.00000000
H        3.16268235      -0.16232985       0.55451008       0.00000000
H        2.21486987      -2.17082171       1.12990400       0.00000000
Si      -2.40841136       1.29881800      -1.97281697       0.00000000
Si      -3.49441680      -0.66256318      -1.08045930       0.00000000
H        3.22087675      -1.61502319      -0.99368841       0.00000000
Si      -2.39243087       2.87841045      -0.13874518       0.00000000
