10
Lattice="16.2900001489832 0.0 0.0 0.0 16.2900001489832 0.0 0.0 0.0 29.41385946727247" Properties=species:S:1:pos:R:3:initial_magmoms:R:1 pbc="T T T"
Si       0.74486026      -1.21935538      -0.53100840       0.00000000
H       -1.94644325       1.22764699      -0.09274190       0.00000000
Si       1.49025320      -2.06013116       1.50750148       0.00000000
Si       2.66725946      -0.19067445      -1.59881975       0.00000000
Si      -0.99424387      -2.59266755      -1.48469397       0.00000000
Si      -2.38842353       1.72175528       1.28850353       0.00000000
Si       1.74528781       2.03724371      -2.17383128       0.00000000
H       -2.63761166       0.32956299      -2.31604729       0.00000000
Si       2.30366177      -0.20958714       2.78536013       0.00000000
Si      -0.53903610       2.62488917       2.56642983       0.00000000
