10
Lattice="16.2900001489832 0.0 0.0 0.0 16.2900001489832 0.0 0.0 0.0 29.41385946727247" Properties=species:S:1:pos:R:3:initial_magmoms:R:1 pbc="T T T"
Si       1.02752434      -0.79052113      -0.77476106       0.00000000
Si      -0.91082278       1.62357544       1.70432726       0.00000000
H       -0.00291591      -1.11723337       2.34146087       0.00000000
Si      -1.66975760       2.08769384      -0.52550801       0.00000000
Si       0.67269556       0.18992511       2.76731473       0.00000000
Si      -0.24311196      -2.09554562      -2.21471655       0.00000000
Si       2.16748226      -2.06645168       0.82691183       0.00000000
Si       2.39751335       0.72119089      -1.96334571       0.00000000
Si      -3.01876509       0.60411466      -1.83763087       0.00000000
Si       2.93104344      -0.19965024       2.18862646       0.00000000
