10
Lattice="16.2900001489832 0.0 0.0 0.0 16.2900001489832 0.0 0.0 0.0 29.41385946727247" Properties=species:S:1:pos:R:3:initial_magmoms:R:1 pbc="T T T"
Si      -1.25447662      -1.21751461       1.56060820       0.00000000
Si       1.48835215      -1.29323053      -1.28329727       0.00000000
Si       1.26776926       1.60401115       1.26028975       0.00000000
Si      -1.82229716       0.29429514      -1.53943316       0.00000000
Si       2.51296058       0.34829649      -2.61868649       0.00000000
Si      -2.48841155      -2.72963387       0.25377131       0.00000000
Si       0.10521711      -2.39181185      -2.82923090       0.00000000
Si      -0.99957070      -0.45651096      -3.60649214       0.00000000
Si       2.70767495       0.25599735       2.63580242       0.00000000
Si      -2.24924177       2.57997764      -1.77627356       0.00000000
