10
Lattice="16.2900001489832 0.0 0.0 0.0 16.2900001489832 0.0 0.0 0.0 29.41385946727247" Properties=species:S:1:pos:R:3:initial_magmoms:R:1 pbc="T T T"
Si       1.36759438      -1.35102745      -1.33968364       0.00000000
Si      -1.37855755      -1.40287852       1.28573863       0.00000000
Si      -1.41736033       1.37217187      -1.31832918       0.00000000
Si       1.38047977       1.33924978       1.39209914       0.00000000
Si      -0.02824686      -2.78760999      -2.53580118       0.00000000
Si       2.64565892       2.68977224      -0.05850417       0.00000000
Si      -0.05183478       2.57797397       2.78272759       0.00000000
Si       2.65880495      -2.73566118       0.05529806       0.00000000
Si      -2.63549396      -0.10472841       2.75793171       0.00000000
Si      -2.75659383      -0.00027693      -2.69097988       0.00000000
