10
Lattice="16.2900001489832 0.0 0.0 0.0 16.2900001489832 0.0 0.0 0.0 29.41385946727247" Properties=species:S:1:pos:R:3:initial_magmoms:R:1 pbc="T T T"
Si       0.63853543       0.18826353      -1.36345004       0.00000000
H        0.72376471      -2.16959996      -0.27828452       0.00000000
Si      -1.94295719      -1.04539447       1.12369767       0.00000000
Si      -0.18604809      -2.56215638       0.88950452       0.00000000
Si       2.45358353       1.46621404      -0.53553814       0.00000000
Si      -2.84289825      -0.37911717      -1.00139485       0.00000000
Si      -1.25108830      -0.18186156      -2.76243203       0.00000000
Si       1.84577105       1.85147255       1.71615163       0.00000000
Si      -1.29376810       0.46309212       2.85158543       0.00000000
Si       0.99693172       0.21527235       3.16081334       0.00000000
