10
Lattice="16.2900001489832 0.0 0.0 0.0 16.2900001489832 0.0 0.0 0.0 29.41385946727247" Properties=species:S:1:pos:R:3:initial_magmoms:R:1 pbc="T T T"
Si       0.59347729       1.41214753      -0.16151150       0.00000000
Si      -1.56289519      -2.28395576      -0.65501724       0.00000000
Si       1.33429762       1.34343631      -2.39169974       0.00000000
Si      -0.31030821      -2.81316900       1.23864704       0.00000000
Si      -2.58176954       0.14941351       1.74894808       0.00000000
Si       2.41266305       1.45178110       1.35921445       0.00000000
Si      -1.09382464       3.03298626      -0.03782622       0.00000000
H        2.49152294      -2.05517900       0.20542639       0.00000000
Si      -1.07224039      -1.33837012       2.91347219       0.00000000
Si      -0.53875917      -1.96732703      -2.72687067       0.00000000
