10
Lattice="16.2900001489832 0.0 0.0 0.0 16.2900001489832 0.0 0.0 0.0 29.41385946727247" Properties=species:S:1:pos:R:3:initial_magmoms:R:1 pbc="T T T"
Si       1.31054680       1.38030058      -1.40275872       0.00000000
Si       1.39139407      -1.37971414       1.33065359       0.00000000
Si      -1.37748241      -1.35534430      -1.37487144       0.00000000
Si      -1.34690608       1.31771440       1.45863329       0.00000000
Si       2.66782961       2.66649383       0.06215149       0.00000000
Si      -2.67162518      -2.69731451       0.07082857       0.00000000
Si      -2.77231368       0.10643886      -2.61300962       0.00000000
Si      -0.16879698       2.71999019      -2.71989664       0.00000000
Si      -2.70554096       2.75999844       0.18236593       0.00000000
Si       2.75206521      -2.73628020      -0.03432597       0.00000000
