10
Lattice="16.2900001489832 0.0 0.0 0.0 16.2900001489832 0.0 0.0 0.0 29.41385946727247" Properties=species:S:1:pos:R:3:initial_magmoms:R:1 pbc="T T T"
H       -0.84887191       0.12509091       1.23923531       0.00000000
Si      -1.19118997       0.64998730      -1.91719536       0.00000000
Si       0.70219675      -2.26805672      -0.22995755       0.00000000
Si       1.78955426       1.57374433      -0.19436678       0.00000000
Si       2.52956009       0.58223719      -2.18750873       0.00000000
Si       0.53442603       0.10554291      -3.40868393       0.00000000
H       -3.35388297      -0.91070875      -0.52450794       0.00000000
Si       2.40613076      -1.84907792      -1.87504530       0.00000000
Si       0.79449589      -2.79713964       2.07058864       0.00000000
H       -0.15770349       1.02317491       3.46254071       0.00000000
