10
Lattice="16.2900001489832 0.0 0.0 0.0 16.2900001489832 0.0 0.0 0.0 29.41385946727247" Properties=species:S:1:pos:R:3:initial_magmoms:R:1 pbc="T T T"
Si      -0.61807519       1.73941364      -1.43586696       0.00000000
Si      -1.44870229       0.50132475       1.80674632       0.00000000
Si      -0.63654805      -2.05451111      -1.02763201       0.00000000
Si       2.23080149       0.82069021       0.31028680       0.00000000
H        3.02710557       0.32780367      -0.90068179       0.00000000
Si      -2.91356427       1.00002682      -1.39286390       0.00000000
H        2.80588737      -1.85978045       0.36067274       0.00000000
Si      -0.68665609       2.69961140       2.20709836       0.00000000
Si       1.29748222      -2.49015458      -2.36157995       0.00000000
Si      -0.66793888       3.62781561       0.01079489       0.00000000
