10
Lattice="16.2900001489832 0.0 0.0 0.0 16.2900001489832 0.0 0.0 0.0 29.41385946727247" Properties=species:S:1:pos:R:3:initial_magmoms:R:1 pbc="T T T"
Si       1.87082507       0.15152958       1.42166007       0.00000000
Si       0.95830813      -0.97867063      -1.92516652       0.00000000
Si      -1.43478086      -1.28054062       1.38306909       0.00000000
H        1.09530703       1.96760396      -0.96853956       0.00000000
Si      -1.31543054       1.80643070      -1.05398683       0.00000000
H        3.01381293       0.59885657       0.49529998       0.00000000
Si      -1.92078813       0.85894239       2.65742455       0.00000000
Si      -3.17925417      -1.53956791      -0.19274902       0.00000000
Si      -3.40993686       0.78415825      -0.71808055       0.00000000
Si      -0.91715307      -0.97028128      -3.32311901       0.00000000
