10
Lattice="16.2900001489832 0.0 0.0 0.0 16.2900001489832 0.0 0.0 0.0 29.41385946727247" Properties=species:S:1:pos:R:3:initial_magmoms:R:1 pbc="T T T"
Si       1.63691696       1.24080931      -1.09978421       0.00000000
Si       1.20645370      -1.32367654       1.52946186       0.00000000
Si      -1.14505669      -1.50747661      -1.44395578       0.00000000
Si      -1.31217580       1.55411488       1.28417969       0.00000000
Si      -1.87419710      -2.61506630       0.56368720       0.00000000
Si       0.76385440      -0.14112027       3.57263678       0.00000000
Si       0.46278261       2.08640693      -2.99380144       0.00000000
Si       0.16650009      -3.52273534       1.35253750       0.00000000
Si       3.42407658      -1.42610806       0.74470009       0.00000000
Si       0.09796806       2.11006001       3.17549085       0.00000000
