10
Lattice="16.2900001489832 0.0 0.0 0.0 16.2900001489832 0.0 0.0 0.0 29.41385946727247" Properties=species:S:1:pos:R:3:initial_magmoms:R:1 pbc="T T T"
Si       1.37290492       1.32711536      -1.36727384       0.00000000
Si       1.28122480      -1.27380471       1.51775515       0.00000000
Si      -1.38005623       1.26726590       1.44127911       0.00000000
Si      -1.38699577      -1.39402426      -1.36092045       0.00000000
Si      -2.26220861      -0.56425140       2.72884140       0.00000000
Si      -0.51983019      -2.28067984       2.72378221       0.00000000
Si       2.58432707      -2.71537850       0.07903504       0.00000000
Si      -2.76034053       2.58564819       0.04241479       0.00000000
Si       2.71981100       2.64274464       0.08500605       0.00000000
Si       0.01575243       2.67393999      -2.76099075       0.00000000
