10
Lattice="16.2900001489832 0.0 0.0 0.0 16.2900001489832 0.0 0.0 0.0 29.41385946727247" Properties=species:S:1:pos:R:3:initial_magmoms:R:1 pbc="T T T"
H        0.21800907       1.50306202      -0.17963044       0.00000000
Si       0.02300148       0.07889247       2.35131451       0.00000000
Si       1.87504418      -0.86942989      -1.21632192       0.00000000
Si      -2.19097244      -0.06625143      -0.99651214       0.00000000
H       -1.28370088      -3.07923357       0.59916032       0.00000000
Si      -1.75459592       1.64302571      -2.57871306       0.00000000
H        0.47516301      -3.39040515      -1.07687081       0.00000000
Si       0.09037692       2.39244716       2.78402180       0.00000000
Si       0.94899025      -2.72554508      -2.36693327       0.00000000
Si       2.96104962       1.09195129      -2.10867959       0.00000000
