10
Lattice="16.2900001489832 0.0 0.0 0.0 16.2900001489832 0.0 0.0 0.0 29.41385946727247" Properties=species:S:1:pos:R:3:initial_magmoms:R:1 pbc="T T T"
Si       1.41130045      -1.18995193      -1.47989951       0.00000000
Si       1.41993415       1.24110253       1.43068718       0.00000000
Si      -1.37152027       1.43176069      -1.32241771       0.00000000
Si      -1.22393287      -1.46404747       1.42838996       0.00000000
H       -0.15851799      -1.15408135      -3.25208454       0.00000000
Si      -2.82944271      -0.01326006      -2.48305919       0.00000000
Si       2.69545745       2.65382021       0.04576797       0.00000000
Si      -2.63472833      -0.10555920       2.77142973       0.00000000
Si       0.08576685       2.63420705       2.81012366       0.00000000
Si      -2.75323809       2.73170270       0.07624072       0.00000000
