10
Lattice="16.2900001489832 0.0 0.0 0.0 16.2900001489832 0.0 0.0 0.0 29.41385946727247" Properties=species:S:1:pos:R:3:initial_magmoms:R:1 pbc="T T T"
Si      -1.40025583       1.23007420       1.43645524       0.00000000
Si       1.32180319       1.36129015      -1.39592294       0.00000000
Si       1.28272348      -1.37961640       1.44483819       0.00000000
Si      -1.40665780      -1.38639304      -1.33227135       0.00000000
Si      -2.21270330      -0.55925200       2.86073314       0.00000000
Si      -0.39449493      -2.40210713       2.79805221       0.00000000
Si      -2.69355152       2.57530241      -0.06771070       0.00000000
Si       2.66818799       2.67230936       0.06041607       0.00000000
Si       2.65873979      -0.08576685      -2.68157333       0.00000000
Si      -0.00255753      -2.70169652      -2.72690008       0.00000000
