10
Lattice="16.2900001489832 0.0 0.0 0.0 16.2900001489832 0.0 0.0 0.0 29.41385946727247" Properties=species:S:1:pos:R:3:initial_magmoms:R:1 pbc="T T T"
Si      -0.89661790      -1.93150532       0.95209722       0.00000000
Si       0.61582717      -0.40125528      -2.24189495       0.00000000
Si       1.96600754      -0.19240119       1.31485835       0.00000000
Si      -1.54707760       1.88474650       0.24057596       0.00000000
H        1.93577330      -1.64532260       1.80983477       0.00000000
H       -1.53135775      -0.70954354      -3.25496710       0.00000000
Si      -0.24294906       1.40995490      -3.42130248       0.00000000
Si      -1.61021764       2.79741657      -2.10117905       0.00000000
Si      -1.50443038      -1.54624681       3.20378699       0.00000000
Si       1.63362638       0.74466478       3.42118482       0.00000000
