10
Lattice="16.2900001489832 0.0 0.0 0.0 16.2900001489832 0.0 0.0 0.0 29.41385946727247" Properties=species:S:1:pos:R:3:initial_magmoms:R:1 pbc="T T T"
Si      -1.84373317       0.77410081      -1.22749918       0.00000000
Si      -0.68406435       0.18371862       2.29103201       0.00000000
Si       1.33998446       1.97377461      -0.50677138       0.00000000
Si       0.48600727      -2.13948301      -1.27435546       0.00000000
H       -1.75312819       2.27530251      -1.32047639       0.00000000
Si       1.92078813      -0.85894239      -2.65742455       0.00000000
H       -2.46037483       2.47084767       0.90677046       0.00000000
Si      -1.48914873      -0.07478413      -3.37550510       0.00000000
Si      -3.75676563       0.06720277      -0.10656641       0.00000000
Si       3.66719017       1.05390111       0.46153287       0.00000000
