10
Lattice="16.2900001489832 0.0 0.0 0.0 16.2900001489832 0.0 0.0 0.0 29.41385946727247" Properties=species:S:1:pos:R:3:initial_magmoms:R:1 pbc="T T T"
Si       1.39421224      -0.95047264      -1.58917200       0.00000000
Si      -1.02460843      -1.64152702       1.33538922       0.00000000
Si      -1.86323393       0.88883128      -1.13961057       0.00000000
Si       1.45792243       1.44502075       1.16064148       0.00000000
H        2.67092471      -1.14082129      -0.76902536       0.00000000
H       -0.20572641       2.79091686      -1.25741308       0.00000000
Si      -2.51296058      -0.34829649       2.61868649       0.00000000
Si      -2.40774347      -2.74010835      -0.21054441       0.00000000
Si      -3.51253128      -0.80480746      -0.98780564       0.00000000
Si       0.07620462       2.74496277       2.55929991       0.00000000
