10
Lattice="16.2900001489832 0.0 0.0 0.0 16.2900001489832 0.0 0.0 0.0 29.41385946727247" Properties=species:S:1:pos:R:3:initial_magmoms:R:1 pbc="T T T"
H        0.19688094       1.47839896      -0.23872288       0.00000000
Si       0.26311608      -1.18620197      -1.96193384       0.00000000
Si       1.73366815      -0.69127593       1.43374917       0.00000000
Si      -2.29588004      -0.39367718       0.34058308       0.00000000
H        0.11468160       2.89204518       1.37609800       0.00000000
Si      -2.34644420      -0.61665144       2.70728104       0.00000000
H        1.12068848       3.44784369      -0.74749441       0.00000000
Si      -3.40259007       1.33312474      -0.90362318       0.00000000
Si      -1.47931120      -0.66397063      -3.43442106       0.00000000
Si       2.35709786      -0.91147275      -2.85832121       0.00000000
