10
Lattice="16.2900001489832 0.0 0.0 0.0 16.2900001489832 0.0 0.0 0.0 29.41385946727247" Properties=species:S:1:pos:R:3:initial_magmoms:R:1 pbc="T T T"
Si       1.38289069       1.35562123      -1.33311259       0.00000000
Si      -1.32914998       1.40271562       1.35321402       0.00000000
Si       1.45140643      -1.32537070       1.32397664       0.00000000
Si      -1.35728281      -1.28619325      -1.46491021       0.00000000
Si      -2.66782961      -2.66649383      -0.06215149       0.00000000
Si       0.00232947       2.63529848      -2.73905389       0.00000000
Si       0.13080870      -2.76866472       2.64898277       0.00000000
Si      -2.70158249       0.07291404       2.73651842       0.00000000
Si       2.81566137      -2.62363484      -0.11283157       0.00000000
Si       0.04417848       2.75309148       2.69880985       0.00000000
