10
Lattice="16.2900001489832 0.0 0.0 0.0 16.2900001489832 0.0 0.0 0.0 29.41385946727247" Properties=species:S:1:pos:R:3:initial_magmoms:R:1 pbc="T T T"
Si       1.43430193      -1.29547855       1.26156043       0.00000000
Si       1.44197452       1.26136729      -1.37762752       0.00000000
Si      -1.20622564      -1.57459141      -1.30785785       0.00000000
Si      -1.44803440       1.23805630       1.46322185       0.00000000
Si      -0.00922014      -1.82832446       2.95429863       0.00000000
Si      -2.58799232       2.51398685      -0.13845104       0.00000000
Si      -2.49952133      -0.22936320      -2.81202379       0.00000000
Si       0.11567529       2.64546344      -2.73481241       0.00000000
Si       2.85022875       2.57043170      -0.01514814       0.00000000
Si      -2.01867311      -3.36391761       0.11642006       0.00000000
