10
Lattice="16.2900001489832 0.0 0.0 0.0 16.2900001489832 0.0 0.0 0.0 29.41385946727247" Properties=species:S:1:pos:R:3:initial_magmoms:R:1 pbc="T T T"
Si       1.39259953       1.71086378      -0.64675194       0.00000000
Si      -1.95558194       0.66565828      -1.07972395       0.00000000
Si       0.38419965      -2.27540351      -0.43770764       0.00000000
Si      -0.43613217       0.20310372       2.31519429       0.00000000
Si      -3.13882239      -1.14479605      -0.13271533       0.00000000
Si       3.13426119       0.97207969       0.75978940       0.00000000
Si      -1.04998825       2.50312142       2.00858422       0.00000000
Si       0.41389632       3.53346393       0.43417798       0.00000000
Si      -1.62320077      -0.27140769      -3.18605043       0.00000000
H       -1.65343502      -1.72432910      -2.69107400       0.00000000
