10
Lattice="16.2900001489832 0.0 0.0 0.0 16.2900001489832 0.0 0.0 0.0 29.41385946727247" Properties=species:S:1:pos:R:3:initial_magmoms:R:1 pbc="T T T"
Si       0.63749287       1.04104504      -0.91056485       0.00000000
Si      -2.41073757      -0.16117326      -0.08544726       0.00000000
Si      -1.09530703      -1.96760396       0.96853956       0.00000000
H        1.91850590      -1.36874739       1.46383954       0.00000000
Si       2.72816778      -0.00919571      -0.86573813       0.00000000
Si      -0.19300392       2.98219404       0.19521979       0.00000000
Si       0.77551804      -1.81607438       2.39019963       0.00000000
Si      -0.13699890      -2.94627459      -0.95662695       0.00000000
Si      -0.03422529       0.53120061      -3.12428132       0.00000000
Si      -2.27466883       1.99702370       1.00615989       0.00000000
