10
Lattice="16.2900001489832 0.0 0.0 0.0 16.2900001489832 0.0 0.0 0.0 29.41385946727247" Properties=species:S:1:pos:R:3:initial_magmoms:R:1 pbc="T T T"
H       -0.46253826       1.20487357       0.76934891       0.00000000
Si      -0.42933924       0.74508832      -2.18509679       0.00000000
Si       2.35364438      -0.01218492       0.09668336       0.00000000
Si      -1.02454327      -1.90956269       1.05751649       0.00000000
Si       2.51423120       1.72916723       1.69150282       0.00000000
Si       2.71774217      -2.33301961       0.20680885       0.00000000
Si       0.85317247      -3.33157382       1.21723375       0.00000000
Si       0.58020094       2.16481070       3.02545076       0.00000000
Si      -1.37264428      -1.03102669      -3.41306660       0.00000000
Si      -2.11093967       2.48490920      -2.09659049       0.00000000
