10
Lattice="16.2900001489832 0.0 0.0 0.0 16.2900001489832 0.0 0.0 0.0 29.41385946727247" Properties=species:S:1:pos:R:3:initial_magmoms:R:1 pbc="T T T"
Si      -1.86456971      -0.99855420       1.01042490       0.00000000
Si      -0.36409779       2.32083469      -0.11012549       0.00000000
Si       1.65939716      -1.07780017       1.28009116       0.00000000
Si       0.53517537      -0.52245451      -2.26895571       0.00000000
Si       3.11696121       0.71983719       1.35474354       0.00000000
Si      -2.71774217       2.33301961      -0.20680885       0.00000000
Si      -1.29665143      -0.85565995       3.28149840       0.00000000
Si      -1.90467569      -3.13981771       0.05306260       0.00000000
Si      -3.74228544       0.42345692       0.85070764       0.00000000
Si       2.27755379      -2.23888296      -2.27401489       0.00000000
