10
Lattice="16.2900001489832 0.0 0.0 0.0 16.2900001489832 0.0 0.0 0.0 29.41385946727247" Properties=species:S:1:pos:R:3:initial_magmoms:R:1 pbc="T T T"
Si      -1.13438674       1.49835894      -1.39747599       0.00000000
Si      -1.38764737      -1.34691439       1.34033369       0.00000000
Si       1.24799320      -1.29600814      -1.52685874       0.00000000
Si       1.37979559       1.39789199       1.31927337       0.00000000
H       -1.94243591       0.61335418      -2.38268733       0.00000000
Si       0.73735057       2.24832122      -2.64677761       0.00000000
Si      -0.60139423      -2.19914204      -2.80478504       0.00000000
Si       2.36224550       0.43954802      -2.70173238       0.00000000
Si       2.63057438      -2.70981725      -0.10646052       0.00000000
Si       2.65001472      -0.00300241       2.71822594       0.00000000
