10
Lattice="16.2900001489832 0.0 0.0 0.0 16.2900001489832 0.0 0.0 0.0 29.41385946727247" Properties=species:S:1:pos:R:3:initial_magmoms:R:1 pbc="T T T"
Si      -0.79133563      -1.86790916      -1.17181081       0.00000000
Si       1.27648571      -1.32657616       1.48547638       0.00000000
Si      -1.48657654       1.31110066       1.34374864       0.00000000
Si       1.45002341       1.22948776      -1.45956277       0.00000000
H       -0.94275118      -1.38955330      -2.61102713       0.00000000
Si       2.57503200       2.67183695       0.06438988       0.00000000
Si      -2.66307293      -2.61787144       0.07749081       0.00000000
Si       2.54462834      -2.82674997       0.17379179       0.00000000
Si      -0.16685847       2.61101009       2.84359663       0.00000000
Si       2.59863947      -0.00622278       2.87289283       0.00000000
