10
Lattice="16.2900001489832 0.0 0.0 0.0 16.2900001489832 0.0 0.0 0.0 29.41385946727247" Properties=species:S:1:pos:R:3:initial_magmoms:R:1 pbc="T T T"
Si       1.51337229       1.08121618      -1.48331152       0.00000000
Si       1.44635490      -1.45317227       1.24629464       0.00000000
Si      -1.25356438      -1.49220637      -1.47213425       0.00000000
Si      -1.48607155       1.56722833       1.35500826       0.00000000
Si      -0.17511750      -2.40497417       2.69372125       0.00000000
Si       0.18502182       2.42434298      -2.90488335       0.00000000
Si      -2.53478918      -0.21840166      -2.98988940       0.00000000
Si      -3.05461938      -2.49908150      -0.26610719       0.00000000
Si       3.45835074       1.92067247      -0.35511353       0.00000000
Si       2.68296791      -2.94645378      -0.16148209       0.00000000
