10
Lattice="16.2900001489832 0.0 0.0 0.0 16.2900001489832 0.0 0.0 0.0 29.41385946727247" Properties=species:S:1:pos:R:3:initial_magmoms:R:1 pbc="T T T"
H        1.16752060       0.78784957       0.55989281       0.00000000
Si       0.97870321      -1.82260015      -1.08092992       0.00000000
Si      -1.35578413       1.31215951      -1.42118945       0.00000000
Si      -1.46388457      -1.03034251       1.57440624       0.00000000
Si      -2.98581042      -0.53079336      -1.52057888       0.00000000
H        2.45638541      -0.21129759       2.38064013       0.00000000
H       -1.77937301       1.63473409       2.49767788       0.00000000
Si      -0.41389632      -3.53346393      -0.43417798       0.00000000
Si      -3.52412976      -0.26510346       0.77526109       0.00000000
Si       2.72036486      -2.56138424       0.32561142       0.00000000
