10
Lattice="16.2900001489832 0.0 0.0 0.0 16.2900001489832 0.0 0.0 0.0 29.41385946727247" Properties=species:S:1:pos:R:3:initial_magmoms:R:1 pbc="T T T"
Si      -1.34157925      -1.31602024       1.45452123       0.00000000
Si       1.31971807       1.29990943       1.49984799       0.00000000
Si      -1.40623426       1.34501644      -1.38221314       0.00000000
Si       1.48657654      -1.31110066      -1.34374864       0.00000000
Si       2.65124134       2.63287127       0.12936510       0.00000000
Si      -2.67911858      -2.64743453       0.04875053       0.00000000
Si       2.76306226      -2.63767682       0.14172774       0.00000000
Si      -2.74040157       2.73812097      -0.00277667       0.00000000
Si       0.01557324      -2.66284487       2.84823814       0.00000000
Si      -0.13071096       2.75773413      -2.76713236       0.00000000
