10
Lattice="16.2900001489832 0.0 0.0 0.0 16.2900001489832 0.0 0.0 0.0 29.41385946727247" Properties=species:S:1:pos:R:3:initial_magmoms:R:1 pbc="T T T"
Si      -1.33152327      -1.33296184       1.37048290       0.00000000
Si       1.41036720      -1.27213498      -1.40872385       0.00000000
Si      -1.29821022       1.35022924      -1.46266005       0.00000000
Si       1.35704025       1.39698154       1.38766059       0.00000000
Si       0.58393151       2.24876936      -2.58393402       0.00000000
Si       2.32116717       0.55278487      -2.59033800       0.00000000
Si      -2.65124134      -2.63287127      -0.12936510       0.00000000
Si      -2.66845987       0.11409516       2.65613328       0.00000000
Si       0.05983969      -2.62878248       2.78961337       0.00000000
Si       2.79668857      -2.63948501      -0.02861086       0.00000000
