10
Lattice="16.2900001489832 0.0 0.0 0.0 16.2900001489832 0.0 0.0 0.0 29.41385946727247" Properties=species:S:1:pos:R:3:initial_magmoms:R:1 pbc="T T T"
Si      -1.03614175       0.87043987      -1.96649299       0.00000000
Si      -1.08600544      -1.96138118       0.89235767       0.00000000
Si       0.01598049       1.57959244       1.83407179       0.00000000
Si       2.43885737      -0.06996555      -0.10900776       0.00000000
H       -0.46105587      -1.81003079      -1.91610705       0.00000000
H       -0.23983767       0.37755333      -3.17746158       0.00000000
Si       2.40841136      -1.29881800       1.97281697       0.00000000
H       -2.74304055       0.41111073       1.92904915       0.00000000
Si      -0.02911023       3.45967023       0.27866690       0.00000000
Si       1.78743656       0.68097088       3.16749028       0.00000000
