10
Lattice="16.2900001489832 0.0 0.0 0.0 16.2900001489832 0.0 0.0 0.0 29.41385946727247" Properties=species:S:1:pos:R:3:initial_magmoms:R:1 pbc="T T T"
Si      -0.79630408       0.49288653       1.21096859       0.00000000
H       -0.22121820      -2.18758412       1.26135454       0.00000000
Si       1.08633124      -0.48637053      -2.27886818       0.00000000
Si       0.16055424      -2.89188228      -0.02420761       0.00000000
Si       2.15287013      -1.99112672      -0.87035610       0.00000000
Si      -0.26801937       2.84714994       1.13025696       0.00000000
Si      -3.02710557      -0.32780367       0.90068179       0.00000000
Si       0.23983767      -0.37755333       3.17746158       0.00000000
Si      -1.14722326      -1.02446182      -2.90732470       0.00000000
H        3.13761693       1.34431597       0.41076455       0.00000000
