10
Lattice="16.2900001489832 0.0 0.0 0.0 16.2900001489832 0.0 0.0 0.0 29.41385946727247" Properties=species:S:1:pos:R:3:initial_magmoms:R:1 pbc="T T T"
Si       1.29119428       1.34324083      -1.44297041       0.00000000
Si      -1.27694053      -1.33322248      -1.49949208       0.00000000
Si      -1.35335692       1.38422647       1.38321616       0.00000000
Si       1.37417603      -1.36454815       1.40571776       0.00000000
Si       2.66097641       2.62596431       0.05335674       0.00000000
Si      -2.64499103      -2.70360245      -0.11583178       0.00000000
Si       2.75131098      -0.07742637      -2.64443833       0.00000000
Si      -2.72702747       2.70614369       0.00382380       0.00000000
Si      -2.71464707       0.02619432       2.72319394       0.00000000
Si       2.71101115      -2.77975821       0.04929763       0.00000000
