10
Lattice="16.2900001489832 0.0 0.0 0.0 16.2900001489832 0.0 0.0 0.0 29.41385946727247" Properties=species:S:1:pos:R:3:initial_magmoms:R:1 pbc="T T T"
Si      -0.32694030       0.31115529      -2.31792978       0.00000000
Si      -1.52265889      -1.26087859       1.29559227       0.00000000
Si       0.93276541       2.03753693       0.84476604       0.00000000
Si       1.92999035      -1.50876352      -0.02294281       0.00000000
H        3.15629016      -0.64236358       0.24166427       0.00000000
Si       1.20497131       2.05622156      -2.68027912       0.00000000
Si       1.02506455       1.50845401       3.14531223       0.00000000
Si       2.63669942       2.45651573      -0.80032170       0.00000000
Si      -0.05520681      -2.57864186       2.66204252       0.00000000
Si       0.29403450      -1.66863359      -3.51260310       0.00000000
