10
Lattice="16.2900001489832 0.0 0.0 0.0 16.2900001489832 0.0 0.0 0.0 29.41385946727247" Properties=species:S:1:pos:R:3:initial_magmoms:R:1 pbc="T T T"
Si      -1.73366815       0.69127593      -1.43374917       0.00000000
Si      -0.24394438       0.35811285       2.34416694       0.00000000
Si       0.15433309      -2.41859913       0.07503476       0.00000000
Si       2.13256790       1.05048672      -0.69466712       0.00000000
H       -1.53678721       2.16967489      -1.67247205       0.00000000
H        2.16679319       0.51928611       2.42961421       0.00000000
Si       2.02979429      -2.42698848       1.47298725       0.00000000
Si       2.80428606       1.56033115       1.51904936       0.00000000
Si      -2.33845070      -0.66415960       2.68007322       0.00000000
Si      -1.47055207      -0.49492604      -3.39568301       0.00000000
