10
Lattice="16.2900001489832 0.0 0.0 0.0 16.2900001489832 0.0 0.0 0.0 29.41385946727247" Properties=species:S:1:pos:R:3:initial_magmoms:R:1 pbc="T T T"
Si       2.21762288      -0.10243152      -0.78476177       0.00000000
Si      -1.20645370       1.32367654      -1.52946186       0.00000000
Si      -0.44259930       1.18255627       2.04317492       0.00000000
Si      -1.03995361      -2.19905880      -0.17692436       0.00000000
Si      -2.07824564      -0.35346042       2.64654142       0.00000000
Si      -3.08065080      -1.29138976      -0.96577466       0.00000000
Si       2.22627287      -2.36117851      -1.48401745       0.00000000
Si      -1.40237353      -2.53429071       2.09473742       0.00000000
Si       0.43046325       2.56448585      -2.62924607       0.00000000
Si      -2.35151039      -0.18380007      -2.97341764       0.00000000
