10
Lattice="16.2900001489832 0.0 0.0 0.0 16.2900001489832 0.0 0.0 0.0 29.41385946727247" Properties=species:S:1:pos:R:3:initial_magmoms:R:1 pbc="T T T"
Si       0.59329810       1.77611501       1.34662531       0.00000000
Si      -2.26745399      -0.61198273       0.49906495       0.00000000
Si       0.01889640       1.50055336      -1.91769540       0.00000000
Si       1.35161389      -1.98638633       0.68766662       0.00000000
Si      -2.74620081      -0.84694969      -1.82680657       0.00000000
Si       2.54365094       2.34869222       0.17062980       0.00000000
Si       0.64102780       0.70929919       3.37185778       0.00000000
H        0.65943550      -2.34978365      -2.54629899       0.00000000
Si      -1.06763032      -0.04592151      -3.36956350       0.00000000
Si       1.08100441      -1.64561581       3.02553900       0.00000000
