10
Lattice="16.2900001489832 0.0 0.0 0.0 16.2900001489832 0.0 0.0 0.0 29.41385946727247" Properties=species:S:1:pos:R:3:initial_magmoms:R:1 pbc="T T T"
Si      -0.98362279      -0.61737472       1.99893648       0.00000000
Si       1.68730193      -1.62083872      -0.12368528       0.00000000
Si       0.69677218       2.14338935       0.71390378       0.00000000
Si      -1.70435756      -0.20421144      -1.66882473       0.00000000
H        1.09382464      -3.03298626       0.03782622       0.00000000
Si      -2.43348656       1.15566148       2.44311517       0.00000000
Si       2.02606877       1.47276262       2.65874817       0.00000000
Si      -1.33485148       3.04570875       1.53784481       0.00000000
Si      -1.48794490      -2.88357275       1.78677431       0.00000000
Si       1.74591335       3.10314729      -1.19220255       0.00000000
