10
Lattice="16.2900001489832 0.0 0.0 0.0 16.2900001489832 0.0 0.0 0.0 29.41385946727247" Properties=species:S:1:pos:R:3:initial_magmoms:R:1 pbc="T T T"
Si      -1.41449329       1.44096454       1.17043630       0.00000000
Si       1.32900663       1.38562741      -1.37492145       0.00000000
Si      -1.40468818      -1.28611180      -1.40995335       0.00000000
Si       0.94251009      -0.94903912       2.01993797       0.00000000
Si      -1.07412677      -1.54730566       3.12128111       0.00000000
Si      -0.02052703       2.44521047       2.75428439       0.00000000
Si      -2.71280305       0.04149063       2.49414821       0.00000000
Si       2.55828262       2.82905175       0.03906161       0.00000000
Si       1.90853968       0.92538604       3.17304950       0.00000000
Si      -0.02083817      -2.66887217      -2.74322478       0.00000000
