10
Lattice="16.2900001489832 0.0 0.0 0.0 16.2900001489832 0.0 0.0 0.0 29.41385946727247" Properties=species:S:1:pos:R:3:initial_magmoms:R:1 pbc="T T T"
Si      -1.13995792       1.27593055      -1.60167289       0.00000000
Si       1.44803440      -1.23805630      -1.46322185       0.00000000
Si       0.76356118       1.86680144       1.36171462       0.00000000
Si      -1.67130515      -1.37251396       1.25970736       0.00000000
H       -2.17039817       0.94921831       1.51454904       0.00000000
H       -2.16748226       2.06645168      -0.82691183       0.00000000
Si      -1.49478670       2.25637679       1.94040290       0.00000000
Si       1.43881426      -3.06638076       1.49107678       0.00000000
Si      -0.79474024      -3.60447204       0.86262026       0.00000000
Si       2.88233634      -2.53353485      -0.20166142       0.00000000
