10
Lattice="16.2900001489832 0.0 0.0 0.0 16.2900001489832 0.0 0.0 0.0 29.41385946727247" Properties=species:S:1:pos:R:3:initial_magmoms:R:1 pbc="T T T"
Si      -0.58240009      -1.79349644       1.44642654       0.00000000
Si       2.23355450       0.53809128       0.62845652       0.00000000
Si      -0.87656491       2.23195808       0.39708710       0.00000000
Si       0.22410153      -0.99750187      -2.20942205       0.00000000
H        1.14722326       1.02446182       2.90732470       0.00000000
Si      -0.74298691      -3.53484858      -0.14839292       0.00000000
Si       1.30777750      -1.86742046       2.88311709       0.00000000
Si       0.79474024       3.60447204      -0.86262026       0.00000000
Si       1.03654900       0.79182433      -3.63369996       0.00000000
Si      -3.08631972       2.43377489      -0.48082836       0.00000000
