10
Lattice="16.2900001489832 0.0 0.0 0.0 16.2900001489832 0.0 0.0 0.0 29.41385946727247" Properties=species:S:1:pos:R:3:initial_magmoms:R:1 pbc="T T T"
H        1.27671247      -0.19034865       0.82014664       0.00000000
Si       0.84466909       1.26739459      -1.74441835       0.00000000
Si      -1.39421224       0.95047264       1.58917200       0.00000000
Si      -0.46804428      -2.09018621      -0.90227014       0.00000000
Si       1.59220090      -2.85542526      -0.10312499       0.00000000
Si       2.46435122       2.43959042      -0.41135282       0.00000000
H       -2.97101910      -0.03420900      -1.95022712       0.00000000
Si       1.70030135      -0.51292323      -3.09872068       0.00000000
Si       0.06371019       2.39549339       2.74981348       0.00000000
Si      -1.06541488       2.31759461      -2.73237106       0.00000000
