10
Lattice="10.86 0.0 0.0 0.0 10.86 0.0 0.0 0.0 10.86" Properties=species:S:1:pos:R:3:initial_magmoms:R:1 pbc="T T T"
Si      -1.38797316       1.32186834      -1.23152400       0.00000000
Si       1.32702684      -1.39313166      -1.23152400       0.00000000
Si       1.32702684       1.32186834       1.48347600       0.00000000
Si      -1.32464850      -1.50219864       1.38272778       0.00000000
Si      -0.03047316       2.67936834      -2.58902400       0.00000000
Si       2.68452684      -0.03563166      -2.58902400       0.00000000
Si       2.63409300      -0.01715880       2.69028264       0.00000000
Si      -2.74547316      -0.03563166      -2.58902400       0.00000000
Si      -0.03047316      -2.75063166      -2.58902400       0.00000000
Si       2.68452684       2.67936834       0.12597600       0.00000000
