10
Lattice="10.86 0.0 0.0 0.0 10.86 0.0 0.0 0.0 10.86" Properties=species:S:1:pos:R:3:initial_magmoms:R:1 pbc="T T T"
Si      -1.27293318      -1.30576296       1.36061682       0.00000000
Si       1.44206682      -1.30576296      -1.35438318       0.00000000
Si       1.44206682       1.40923704       1.36061682       0.00000000
Si      -2.56675014      -2.69948106      -0.00271500       0.00000000
Si      -2.52881616       0.06500796      -2.75167422       0.00000000
Si      -2.63043318       0.05173704       2.71811682       0.00000000
Si       0.19875972      -2.77904142      -2.57800110       0.00000000
Si       0.08456682      -2.66326296       2.71811682       0.00000000
Si       2.79956682      -2.66326296       0.00311682       0.00000000
Si       0.08456682       2.76673704       2.71811682       0.00000000
