10
Lattice="10.86 0.0 0.0 0.0 10.86 0.0 0.0 0.0 10.86" Properties=species:S:1:pos:R:3:initial_magmoms:R:1 pbc="T T T"
Si      -1.30706616       1.33902714      -1.20680664       0.00000000
Si       1.40793384      -1.37597286      -1.20680664       0.00000000
Si       1.40793384       1.33902714       1.50819336       0.00000000
Si       0.05043384       2.69652714      -2.56430664       0.00000000
Si      -2.56294914      -2.72020194       0.11090232       0.00000000
Si      -2.63409300       0.01715880      -2.69028264       0.00000000
Si       2.76543384      -0.01847286      -2.56430664       0.00000000
Si      -2.66456616       2.69652714       0.15069336       0.00000000
Si      -0.08622840      -2.84514624      -2.54807094       0.00000000
Si       2.76543384       2.69652714       0.15069336       0.00000000
