10
Lattice="10.86 0.0 0.0 0.0 10.86 0.0 0.0 0.0 10.86" Properties=species:S:1:pos:R:3:initial_magmoms:R:1 pbc="T T T"
Si      -1.20985830       1.27426896      -1.34210052       0.00000000
Si      -1.20985830      -1.44073104       1.37289948       0.00000000
Si       1.50514170      -1.44073104      -1.34210052       0.00000000
Si      -2.50463094       2.58407184       0.05903496       0.00000000
Si       2.72597946       2.52009558       0.03163518       0.00000000
Si      -2.56735830      -0.08323104      -2.69960052       0.00000000
Si       0.14764170       2.63176896      -2.69960052       0.00000000
Si       0.24925872       2.64503988       2.69060844       0.00000000
Si      -2.56735830      -2.79823104       0.01539948       0.00000000
Si       0.14764170      -2.79823104      -2.69960052       0.00000000
