10
Lattice="10.86 0.0 0.0 0.0 10.86 0.0 0.0 0.0 10.86" Properties=species:S:1:pos:R:3:initial_magmoms:R:1 pbc="T T T"
Si       1.11684240       1.41291858       1.23721464       0.00000000
Si       1.11684240      -1.30208142      -1.47778536       0.00000000
Si      -1.59815760      -1.30208142       1.23721464       0.00000000
Si       2.47434240       0.05541858       2.59471464       0.00000000
Si       2.47434240      -2.65958142      -0.12028536       0.00000000
Si       2.47434240       2.77041858      -0.12028536       0.00000000
Si      -0.24065760      -2.65958142       2.59471464       0.00000000
Si       2.47434240       0.05541858      -2.83528536       0.00000000
Si      -0.29777034       2.91909198       2.47057398       0.00000000
Si      -0.24065760      -2.65958142      -2.83528536       0.00000000
