10
Lattice="10.86 0.0 0.0 0.0 10.86 0.0 0.0 0.0 10.86" Properties=species:S:1:pos:R:3:initial_magmoms:R:1 pbc="T T T"
Si      -1.25882604       1.32320412      -1.32371454       0.00000000
Si       1.45617396       1.32320412       1.39128546       0.00000000
Si       1.45617396      -1.39179588      -1.32371454       0.00000000
Si       0.04156122      -2.60062248       2.62464480       0.00000000
Si      -2.61632604       2.68070412       0.03378546       0.00000000
Si      -2.52354906      -0.05243208      -2.79187794       0.00000000
Si      -2.55810558      -0.00564720       2.79725364       0.00000000
Si       0.09867396       2.68070412      -2.68121454       0.00000000
Si       0.09867396       2.68070412       2.74878546       0.00000000
Si       0.30453612      -2.66117784      -2.77997538       0.00000000
