10
Lattice="16.290000149 0.0 0.0 0.0 16.290000149 0.0 0.0 0.0 29.1751946751" Properties=species:S:1:pos:R:3:initial_magmoms:R:1 pbc="T T T"
Si       1.08305695      -1.41995044      -1.49820460       0.00000000
Si      -1.54575811       1.32475168      -1.18416280       0.00000000
Si      -1.05503815      -1.76200787       1.18284992       0.00000000
Si       2.12687129       0.97021612       0.67887760       0.00000000
Si       0.21699909       0.80677855       3.38788196       0.00000000
Si       2.37801422      -2.71397918      -0.07182933       0.00000000
Si      -0.20158875       2.70280424      -2.49806769       0.00000000
Si       2.49825071      -0.09355347      -2.73707089       0.00000000
Si      -1.40452381      -0.88049080       3.31824077       0.00000000
Si       0.54657837      -3.53892108       1.09231929       0.00000000
