10
Lattice="16.290000149 0.0 0.0 0.0 16.290000149 0.0 0.0 0.0 29.1751946751" Properties=species:S:1:pos:R:3:initial_magmoms:R:1 pbc="T T T"
Si       1.34436484       1.35520910      -1.36572004       0.00000000
Si      -1.35684298      -1.36297291      -1.34976121       0.00000000
Si       1.38922750      -1.34857255       1.33324805       0.00000000
Si      -1.38429163       1.35463895       1.33461928       0.00000000
Si       0.02554272      -2.69881808       2.68268833       0.00000000
Si      -0.02886588       2.72251026       2.67244783       0.00000000
Si      -2.70290850      -0.00192222      -2.70483230       0.00000000
Si       2.70537806      -0.00154103      -2.70468642       0.00000000
Si       2.71741637       2.70235953      -0.02246490       0.00000000
Si       2.70884783      -2.71719320      -0.05038556       0.00000000
