10
Lattice="16.290000149 0.0 0.0 0.0 16.290000149 0.0 0.0 0.0 29.1751946751" Properties=species:S:1:pos:R:3:initial_magmoms:R:1 pbc="T T T"
Si       1.57073068       0.76497841       1.58613863       0.00000000
Si       1.14635989       0.12694797      -2.06000215       0.00000000
Si      -0.91342918      -1.83332549       1.17447664       0.00000000
Si      -1.93100033       1.49473783      -0.31795127       0.00000000
Si      -1.93912904      -0.34329546       2.64703624       0.00000000
H       -2.82100449       0.51215760       1.76101475       0.00000000
H        1.84816568      -2.83353150      -0.14613855       0.00000000
Si      -0.03593574       0.95420305       3.26963489       0.00000000
Si       2.30456261       2.73135736       0.57475134       0.00000000
Si       2.65267991       1.98744518      -1.61945671       0.00000000
