10
Lattice="16.290000149 0.0 0.0 0.0 16.290000149 0.0 0.0 0.0 29.1751946751" Properties=species:S:1:pos:R:3:initial_magmoms:R:1 pbc="T T T"
Si       1.71962129      -0.75443878      -1.38208732       0.00000000
Si       1.34873056       1.35702217       1.34062937       0.00000000
Si      -1.42381769       1.16954056      -1.46544085       0.00000000
Si      -1.19219018      -1.69329665       1.18708032       0.00000000
Si      -1.65390091      -0.67440601      -2.90421558       0.00000000
Si       0.65643814      -0.84100384      -3.49005349       0.00000000
Si       2.56547954      -2.59898807      -0.25898820       0.00000000
Si      -2.65441415      -0.41234877       2.52902258       0.00000000
Si      -0.09039321       2.54229887       2.71060111       0.00000000
Si      -2.90424639       2.37504944      -0.14190815       0.00000000
