10
Lattice="16.290000149 0.0 0.0 0.0 16.290000149 0.0 0.0 0.0 29.1751946751" Properties=species:S:1:pos:R:3:initial_magmoms:R:1 pbc="T T T"
Si      -1.33794658       1.15360894       1.55812169       0.00000000
Si      -1.30803814      -1.44736651      -1.36871633       0.00000000
Si       1.42493518      -1.36845775       1.33482059       0.00000000
Si       0.83153935       1.99666532      -1.09331825       0.00000000
H        1.91806607       0.28603611      -1.89532859       0.00000000
Si      -0.91150696       3.53968671      -0.63911765       0.00000000
Si      -2.74362699       2.51853176       0.30458611       0.00000000
Si      -2.70627401      -0.02109555      -2.59174049       0.00000000
Si       0.07985358       2.61351875       2.78729015       0.00000000
Si      -2.63621072      -2.82825354       0.00692036       0.00000000
