10
Lattice="16.290000149 0.0 0.0 0.0 16.290000149 0.0 0.0 0.0 29.1751946751" Properties=species:S:1:pos:R:3:initial_magmoms:R:1 pbc="T T T"
Si      -1.25550289      -1.36928854       1.42761813       0.00000000
Si      -1.45321462       1.41683905      -1.21669314       0.00000000
Si       0.95946472      -1.27237933      -1.75261229       0.00000000
Si       1.38953701       1.37678194       1.34269789       0.00000000
Si       2.35033751       0.16342128      -2.93094006       0.00000000
Si      -2.68493411       0.00545715       2.72009676       0.00000000
Si      -2.06443172      -3.22869432       0.24629962       0.00000000
Si       2.73789290       0.01316232       2.71879555       0.00000000
Si       0.02484225       2.72404640       2.73284049       0.00000000
Si      -0.18749790       2.90077662      -2.54218059       0.00000000
