10
Lattice="16.290000149 0.0 0.0 0.0 16.290000149 0.0 0.0 0.0 29.1751946751" Properties=species:S:1:pos:R:3:initial_magmoms:R:1 pbc="T T T"
Si      -1.37117818      -1.40660893      -1.31257450       0.00000000
Si      -1.34623819       1.27998676       1.46024767       0.00000000
Si       1.33996654      -1.33591033       1.42199899       0.00000000
Si       1.34161183       1.41680647      -1.36077192       0.00000000
Si       2.67186953      -0.02412549      -2.67488980       0.00000000
Si       0.06092460      -2.77847130      -2.59744132       0.00000000
Si      -2.67955841      -2.69566922       0.15874223       0.00000000
Si      -2.77946499       2.59960709       0.17694756       0.00000000
Si      -2.71953407      -0.04298931      -2.68867216       0.00000000
Si       2.68449428       2.74668951       0.03454343       0.00000000
