10
Lattice="16.290000149 0.0 0.0 0.0 16.290000149 0.0 0.0 0.0 29.1751946751" Properties=species:S:1:pos:R:3:initial_magmoms:R:1 pbc="T T T"
Si       1.37127592      -1.34557030      -1.33864546       0.00000000
Si       1.37834578       1.33537276       1.34448050       0.00000000
Si      -1.34996860      -1.36480879       1.35650068       0.00000000
Si      -1.34579836       1.35943309      -1.36904601       0.00000000
Si      -0.00042354       2.70117524       2.65637230       0.00000000
Si      -0.01407456      -2.69534342      -2.66410373       0.00000000
Si      -2.72129339      -0.00825903       2.68913604       0.00000000
Si       2.74217718       0.01182654      -2.67740762       0.00000000
Si      -2.69275331       0.00283446      -2.73164430       0.00000000
Si       2.73448830       2.69074964      -0.01362482       0.00000000
