10
Lattice="16.290000149 0.0 0.0 0.0 16.290000149 0.0 0.0 0.0 29.1751946751" Properties=species:S:1:pos:R:3:initial_magmoms:R:1 pbc="T T T"
H       -0.59748463      -0.09251091      -1.40116790       0.00000000
Si      -1.71579314       0.44186625       1.52425805       0.00000000
Si       0.48071790      -2.02867517       1.05847606       0.00000000
H        1.51457905      -0.85066381      -1.70622373       0.00000000
Si       1.89587909       1.50024385       0.31970178       0.00000000
Si       0.79509862      -0.93090835      -3.03060252       0.00000000
Si      -2.56165139       2.28641555       0.40115893       0.00000000
Si      -0.33914151       1.47310471       3.15649349       0.00000000
Si       2.07353783      -1.21611367       2.62057434       0.00000000
Si       0.92657521       2.95704228       1.83100604       0.00000000
