10
Lattice="16.290000149 0.0 0.0 0.0 16.290000149 0.0 0.0 0.0 29.1751946751" Properties=species:S:1:pos:R:3:initial_magmoms:R:1 pbc="T T T"
Si       0.61304158       0.51694686      -2.18204198       0.00000000
Si      -2.30115800      -0.06382422       0.45134026       0.00000000
Si       0.77051701       2.04584483       0.88021562       0.00000000
Si       1.22644153      -1.86635672       0.95350371       0.00000000
Si       1.70390144       1.00365949       2.71192187       0.00000000
Si       3.03989322      -0.54276652       1.55518375       0.00000000
Si       1.29855736      -1.53304540      -2.94862022       0.00000000
Si      -0.23407101      -0.02063943       3.61635291       0.00000000
Si      -2.43146171       0.36895221       2.80671208       0.00000000
Si      -3.16154694       2.01334628      -0.33814051       0.00000000
