10
Lattice="16.290000149 0.0 0.0 0.0 16.290000149 0.0 0.0 0.0 29.1751946751" Properties=species:S:1:pos:R:3:initial_magmoms:R:1 pbc="T T T"
Si       1.21334437      -1.41454216       1.45062977       0.00000000
Si      -1.47044944       1.29867970       1.34944028       0.00000000
Si      -1.49486815      -1.25020864      -1.36965869       0.00000000
Si       1.61655445       1.48941263      -0.93917869       0.00000000
Si       2.55518426      -2.76921858       0.10675204       0.00000000
H        1.16929621      -1.11301426      -3.44789533       0.00000000
Si       0.89278975       3.68137713      -0.53731956       0.00000000
Si      -2.81090469      -2.61154766       0.11340398       0.00000000
H        3.06735816      -0.68105233      -2.20535297       0.00000000
Si      -0.18054207       2.58519370       2.85295184       0.00000000
