10
Lattice="16.290000149 0.0 0.0 0.0 16.290000149 0.0 0.0 0.0 29.1751946751" Properties=species:S:1:pos:R:3:initial_magmoms:R:1 pbc="T T T"
Si       1.39087279       1.43580061      -1.17832776       0.00000000
Si       1.70308694      -1.59694129       0.01266203       0.00000000
Si      -0.95946472       1.27237933       1.75261229       0.00000000
Si      -1.59281992      -0.81256150      -1.56209827       0.00000000
Si      -2.07353783       1.21611367      -2.62057434       0.00000000
Si      -0.17765874       2.71635752      -2.30087255       0.00000000
Si       0.63558694      -3.35878626      -1.05185329       0.00000000
Si      -2.41267934       2.68921838       0.53591915       0.00000000
Si      -0.29779749      -2.31660092      -2.88355954       0.00000000
Si       2.35478468      -2.02272932       2.14486403       0.00000000
