10
Lattice="16.290000149 0.0 0.0 0.0 16.290000149 0.0 0.0 0.0 29.1751946751" Properties=species:S:1:pos:R:3:initial_magmoms:R:1 pbc="T T T"
H       -1.12359950       0.98824915       0.27334240       0.00000000
H        1.50967739      -1.48256920      -0.62732504       0.00000000
Si       1.48169117       1.19604439      -1.38841834       0.00000000
Si       1.29399779       0.13848129       2.02983499       0.00000000
Si      -1.31719019      -1.70461820      -1.13590703       0.00000000
H       -2.29016062      -0.80006707       2.17754900       0.00000000
Si       2.12384298      -2.78655928      -0.18427053       0.00000000
Si       0.05019926       2.41100147      -2.77170184       0.00000000
Si      -2.60486713      -0.35789130      -2.63735007       0.00000000
Si       0.75427751       2.52781706       2.75755188       0.00000000
