10
Lattice="16.290000149 0.0 0.0 0.0 16.290000149 0.0 0.0 0.0 29.1751946751" Properties=species:S:1:pos:R:3:initial_magmoms:R:1 pbc="T T T"
Si       1.34715043      -1.34781832      -1.36636189       0.00000000
Si      -1.35381304      -1.37469682       1.34275916       0.00000000
Si      -1.35588187       1.32972013      -1.38789319       0.00000000
Si       1.36544410       1.33977106       1.37205106       0.00000000
Si      -0.01817964       2.68320737       2.70786652       0.00000000
Si      -2.72710892      -0.01578501       2.66366610       0.00000000
Si       2.68346801      -2.72295497      -0.01304131       0.00000000
Si      -0.01190799      -2.71262711      -2.69771355       0.00000000
Si      -2.73494442       2.67696830      -0.06657779       0.00000000
Si       2.70971120       2.71174745       0.00927771       0.00000000
