10
Lattice="16.290000149 0.0 0.0 0.0 16.290000149 0.0 0.0 0.0 29.1751946751" Properties=species:S:1:pos:R:3:initial_magmoms:R:1 pbc="T T T"
Si       1.34920297       1.02017755      -1.63208957       0.00000000
Si       1.43281954      -1.63009405       0.92333656       0.00000000
Si      -1.83524771      -1.18574585      -1.00412268       0.00000000
Si      -0.10528227       1.73213201       1.80711156       0.00000000
H       -2.24989337       1.48248775       0.49825397       0.00000000
Si       2.77609296       2.29197044      -0.22785827       0.00000000
Si       0.63302941       0.40685904       3.59593027       0.00000000
Si       2.62133795      -0.48098506       2.61345559       0.00000000
Si      -2.89624800       2.32161824      -0.58227854       0.00000000
Si       0.14128317      -3.06752106       2.20500286       0.00000000
