10
Lattice="16.290000149 0.0 0.0 0.0 16.290000149 0.0 0.0 0.0 29.1751946751" Properties=species:S:1:pos:R:3:initial_magmoms:R:1 pbc="T T T"
Si      -1.32116788      -1.34032492      -1.39263124       0.00000000
Si       1.35490447       1.31299030      -1.40151217       0.00000000
Si      -1.38005623       1.35765748       1.33558206       0.00000000
Si       1.35192340      -1.36917451       1.35521697       0.00000000
Si       2.69803127       2.68167611      -0.03749013       0.00000000
Si      -2.69495409      -2.69951366      -0.02844581       0.00000000
Si       0.09993915      -2.71808426      -2.67737261       0.00000000
Si      -0.01995525       2.71202438       2.68861089       0.00000000
Si       2.69887835      -0.01257588       2.71781526       0.00000000
Si      -0.01927107       2.66478338      -2.76268087       0.00000000
