10
Lattice="16.290000149 0.0 0.0 0.0 16.290000149 0.0 0.0 0.0 29.1751946751" Properties=species:S:1:pos:R:3:initial_magmoms:R:1 pbc="T T T"
Si      -1.35034327      -1.34296390      -1.31238778       0.00000000
Si       1.39538512      -1.28295154       1.35962242       0.00000000
Si       1.38359116       1.33571485      -1.34089195       0.00000000
Si      -1.18294723       1.45176481       1.41196272       0.00000000
Si       2.27300888       0.60633010       2.42921423       0.00000000
Si       0.67139236       2.38324331       2.51974486       0.00000000
Si      -2.66043395       0.08462655      -2.60963364       0.00000000
Si       0.08750988      -2.67770135      -2.59352893       0.00000000
Si       0.01989009      -2.60271848       2.71615227       0.00000000
Si      -2.72220563      -2.59656086       0.11996840       0.00000000
