10
Lattice="16.290000149 0.0 0.0 0.0 16.290000149 0.0 0.0 0.0 29.1751946751" Properties=species:S:1:pos:R:3:initial_magmoms:R:1 pbc="T T T"
Si      -0.84440845      -0.93489940      -0.80899897       0.00000000
H        1.43876539       0.91023634       0.54776428       0.00000000
H        0.80663194      -0.74984500       1.65187035       0.00000000
Si       2.08559243       1.73664434      -0.52862535       0.00000000
Si      -1.09555138       2.74929591      -0.05829204       0.00000000
Si      -0.81171442       1.86269636       2.18239209       0.00000000
Si      -2.13936572       0.35912934      -2.23537424       0.00000000
Si       0.58528342      -2.37877985      -1.93020170       0.00000000
Si      -2.67584429      -1.75984130       0.35514964       0.00000000
Si       1.99247879      -1.26099262       2.45100810       0.00000000
