10
Lattice="16.290000149 0.0 0.0 0.0 16.290000149 0.0 0.0 0.0 29.1751946751" Properties=species:S:1:pos:R:3:initial_magmoms:R:1 pbc="T T T"
Si      -1.33724904      -1.37492488      -1.34383864       0.00000000
Si       1.34261204      -1.35967744       1.36210231       0.00000000
Si       1.32997100       1.35711991      -1.38468391       0.00000000
Si      -1.38936760       1.35951454       1.32262828       0.00000000
Si      -2.66588459       0.03109761      -2.65908559       0.00000000
Si      -0.03730573       2.71248050       2.68303843       0.00000000
Si       2.69007198       2.71148681      -0.03165509       0.00000000
Si       2.69033262       0.00250866       2.71227197       0.00000000
Si       2.70193110      -2.71432127       0.00770225       0.00000000
Si      -2.72754224       0.00184077       2.70264416       0.00000000
