10
Lattice="16.290000149 0.0 0.0 0.0 16.290000149 0.0 0.0 0.0 29.1751946751" Properties=species:S:1:pos:R:3:initial_magmoms:R:1 pbc="T T T"
Si       1.35513253       1.35482302      -1.33438588       0.00000000
Si       1.39523851      -1.45078741       1.19326546       0.00000000
Si      -1.37673307      -1.36594909      -1.33671989       0.00000000
Si      -1.30460095       1.34557030       1.43226866       0.00000000
Si      -0.01995525      -2.77718439       2.43213175       0.00000000
Si       2.66193263       2.66885751       0.11188687       0.00000000
Si      -0.01870092       2.70135769      -2.67133917       0.00000000
Si       2.70774011      -0.03038085      -2.67177680       0.00000000
Si      -2.70409115       2.68686448       0.07109995       0.00000000
Si      -2.64877031      -0.03248226       2.74617355       0.00000000
