10
Lattice="16.290000149 0.0 0.0 0.0 16.290000149 0.0 0.0 0.0 29.1751946751" Properties=species:S:1:pos:R:3:initial_magmoms:R:1 pbc="T T T"
Si       0.17500347      -1.38945393      -0.60678570       0.00000000
Si      -0.70123564       1.82724932       1.92645561       0.00000000
Si      -0.51303726       1.28063836      -2.39373720       0.00000000
Si      -2.54060471       0.94574854       0.74113164       0.00000000
Si      -2.45100971       0.25633944      -1.48930616       0.00000000
Si       1.20616048       2.61669530       0.80298013       0.00000000
Si       2.04680594      -0.78125375       2.05992629       0.00000000
Si       1.00615186      -2.63347400       1.10738828       0.00000000
Si       2.91112077       0.94874590       0.67779287       0.00000000
Si       2.06948162      -1.37328122      -1.94688992       0.00000000
