10
Lattice="16.290000149 0.0 0.0 0.0 16.290000149 0.0 0.0 0.0 29.1751946751" Properties=species:S:1:pos:R:3:initial_magmoms:R:1 pbc="T T T"
Si       1.35206187       1.35296596       1.36041015       0.00000000
Si       1.38936760      -1.35951454      -1.32262828       0.00000000
Si      -1.33817464      -1.35767377       1.38001588       0.00000000
Si      -1.34526079       1.37958382      -1.35515862       0.00000000
Si      -2.68923467       2.71104698       0.03124663       0.00000000
Si       0.05211855      -2.73443943      -2.66646692       0.00000000
Si      -2.70172910       0.03134196      -2.71113414       0.00000000
Si       2.69099399      -0.00635310       2.72330020       0.00000000
Si       2.71085150       2.70492194      -0.00201309       0.00000000
Si      -2.69723306      -2.72248256       0.04866422       0.00000000
