10
Lattice="16.290000149 0.0 0.0 0.0 16.290000149 0.0 0.0 0.0 29.1751946751" Properties=species:S:1:pos:R:3:initial_magmoms:R:1 pbc="T T T"
Si      -1.36010098      -1.35436690      -1.35302883       0.00000000
Si      -1.36858807       1.35294967       1.35227027       0.00000000
Si       1.34827444      -1.36122499       1.36519488       0.00000000
Si       1.35521398       1.34338744      -1.37639816       0.00000000
Si       2.69022836       2.69449634       0.01788439       0.00000000
Si       0.01995525      -2.71202438      -2.68861089       0.00000000
Si      -2.69007198      -2.71148681       0.03165509       0.00000000
Si       2.71353935      -0.00605988       2.71238867       0.00000000
Si      -0.02171457       2.69044013      -2.73648738       0.00000000
Si      -2.71968231       2.71153568      -0.00773143       0.00000000
