10
Lattice="16.290000149 0.0 0.0 0.0 16.290000149 0.0 0.0 0.0 29.1751946751" Properties=species:S:1:pos:R:3:initial_magmoms:R:1 pbc="T T T"
Si      -1.34772058      -1.36218610      -1.35016966       0.00000000
Si       1.34307793      -1.38331423       1.34345936       0.00000000
Si      -1.38870622       1.35065278       1.33365650       0.00000000
Si       1.34801380       1.34775316      -1.37873217       0.00000000
Si       2.71046054      -0.02546127       2.67265206       0.00000000
Si      -0.03748329       2.73686663       2.65654735       0.00000000
Si      -2.69033262      -0.00250866      -2.71227197       0.00000000
Si       2.71327871       2.70291827      -0.03153839       0.00000000
Si       0.01159848      -2.71682993      -2.70456972       0.00000000
Si      -0.03187953      -2.71971326       2.70573673       0.00000000
