10
Lattice="16.290000149 0.0 0.0 0.0 16.290000149 0.0 0.0 0.0 29.1751946751" Properties=species:S:1:pos:R:3:initial_magmoms:R:1 pbc="T T T"
Si       0.88187545      -0.85545307       0.88602149       0.00000000
H       -1.89806195      -0.43196193      -1.24254237       0.00000000
Si       0.89000416       0.98258023      -2.07896602       0.00000000
Si      -0.99494434      -0.36051399      -2.46308664       0.00000000
Si      -0.71405587       2.51671217      -0.99481579       0.00000000
Si      -1.45080370       2.17046496       1.26617427       0.00000000
Si       1.90757531      -2.34548309      -0.58653811       0.00000000
Si      -0.51217389      -2.08816625       2.31210500       0.00000000
Si       2.78506875       0.44204544       1.50862014       0.00000000
Si       2.82100449      -0.51215760      -1.76101475       0.00000000
