10
Lattice="16.290000149 0.0 0.0 0.0 16.290000149 0.0 0.0 0.0 29.1751946751" Properties=species:S:1:pos:R:3:initial_magmoms:R:1 pbc="T T T"
Si       1.36664956       1.34990344      -1.35127832       0.00000000
Si      -1.34312680      -1.36868581      -1.36402204       0.00000000
Si       1.35198856      -1.31898502       1.40767397       0.00000000
Si      -1.36277254       1.37373571       1.34970286       0.00000000
Si       2.67141341       2.64523538       0.12419880       0.00000000
Si      -2.69803127      -2.68167611       0.03749013       0.00000000
Si       0.08630442      -2.74343151      -2.65650067       0.00000000
Si      -0.00522909       2.76175776      -2.65588216       0.00000000
Si       2.77131999      -2.65004093       0.10599348       0.00000000
Si      -2.71730234      -0.01689273      -2.72519075       0.00000000
