10
Lattice="16.290000149 0.0 0.0 0.0 16.290000149 0.0 0.0 0.0 29.1751946751" Properties=species:S:1:pos:R:3:initial_magmoms:R:1 pbc="T T T"
Si      -1.56853153       1.28055691      -1.12254479       0.00000000
Si      -1.39087279      -1.43580061       1.17832776       0.00000000
Si       1.56581110       1.12140361       1.46663704       0.00000000
Si       1.06948738      -1.10969110      -1.86846699       0.00000000
Si       2.09712575      -2.44446113      -0.25297811       0.00000000
Si       0.31221414      -3.03274191       1.19098980       0.00000000
Si       0.04999401       2.30749481      -2.51685652       0.00000000
Si       1.83081683       0.76172041      -3.14966649       0.00000000
Si      -2.53783541       2.73735534       0.38875947       0.00000000
Si      -2.98369272      -2.24836211      -0.38377051       0.00000000
