10
Lattice="16.290000149 0.0 0.0 0.0 16.290000149 0.0 0.0 0.0 29.1751946751" Properties=species:S:1:pos:R:3:initial_magmoms:R:1 pbc="T T T"
Si       1.34288245       1.32988303       1.39531536       0.00000000
Si       1.33025770      -1.44093196      -1.31411787       0.00000000
Si      -1.34161183      -1.41680647       1.36077192       0.00000000
Si      -1.42493518       1.36845775      -1.33482059       0.00000000
H        0.49313088       1.65449387      -3.23014918       0.00000000
Si      -2.76288177       2.52206669       0.22330110       0.00000000
Si       2.64769517       2.68327253      -0.03412331       0.00000000
Si      -2.73297333      -0.07890876      -2.70353692       0.00000000
Si      -0.06335181      -2.76253968      -2.68086779       0.00000000
Si       2.69588099      -0.05230719       2.75382912       0.00000000
