10
Lattice="16.290000149 0.0 0.0 0.0 16.290000149 0.0 0.0 0.0 29.1751946751" Properties=species:S:1:pos:R:3:initial_magmoms:R:1 pbc="T T T"
Si      -0.28926316       0.81901234       2.15660122       0.00000000
Si       1.65460790      -1.65245762       0.08945115       0.00000000
Si      -1.76158433      -1.00727587      -1.16762047       0.00000000
Si       0.92349640       1.72639793      -1.28650938       0.00000000
Si      -0.41986498      -2.30891204      -2.59023213       0.00000000
Si      -2.56210751       1.31729086       2.03333602       0.00000000
Si       2.45285048       0.46618722      -2.50425283       0.00000000
Si       3.48449619      -0.36170316      -0.55202386       0.00000000
Si       1.01691955       2.79491931       2.25985223       0.00000000
Si       2.12962430      -2.07260930       2.29979307       0.00000000
