10
Lattice="16.290000149 0.0 0.0 0.0 16.290000149 0.0 0.0 0.0 29.1751946751" Properties=species:S:1:pos:R:3:initial_magmoms:R:1 pbc="T T T"
Si       1.36045936       1.36236529      -1.34415957       0.00000000
Si      -1.36526491      -1.35516511      -1.34719379       0.00000000
Si       1.35066907      -1.37679823       1.34223401       0.00000000
Si      -1.37497375       1.36441783       1.33251867       0.00000000
Si      -0.02331099       2.70055622      -2.69450428       0.00000000
Si       2.72981307      -0.01666467      -2.66693372       0.00000000
Si       0.00529425      -2.71854038      -2.68318430       0.00000000
Si       2.72774423      -0.03679911       2.67484020       0.00000000
Si      -0.02635722       2.72611523       2.68085029       0.00000000
Si      -2.71327871      -2.70291827       0.03153839       0.00000000
