10
Lattice="16.290000149 0.0 0.0 0.0 16.290000149 0.0 0.0 0.0 29.1751946751" Properties=species:S:1:pos:R:3:initial_magmoms:R:1 pbc="T T T"
Si      -0.84585826       1.84454930      -1.12309912       0.00000000
Si       1.71579314      -0.44186625      -1.52425805       0.00000000
Si       1.37665162       1.03123846       1.63223544       0.00000000
Si      -1.39561318      -1.73721449       0.91309607       0.00000000
H        1.11830851      -0.53437716      -2.92542595       0.00000000
H       -1.99471052      -1.17781588      -2.19204908       0.00000000
Si       2.19651104      -2.47054142      -0.46578198       0.00000000
Si       0.32759190      -3.36219087       0.81156639       0.00000000
Si       2.64236834       2.51517602       0.30674800       0.00000000
Si      -2.56547954       2.59898807       0.25898820       0.00000000
