10
Lattice="16.290000149 0.0 0.0 0.0 16.290000149 0.0 0.0 0.0 29.1751946751" Properties=species:S:1:pos:R:3:initial_magmoms:R:1 pbc="T T T"
Si      -1.36673101       1.35752716      -1.32805486       0.00000000
Si       1.34861653       1.36169740       1.34833162       0.00000000
Si      -1.37578825      -1.33046947       1.35556707       0.00000000
Si       1.37497375      -1.36441783      -1.33251867       0.00000000
Si       2.66823686      -0.07938117       2.62430876       0.00000000
Si       0.00171045       2.70114266      -2.67104742       0.00000000
Si       0.00970884      -2.71958294      -2.67971246       0.00000000
Si      -2.70715367      -0.00540828      -2.69263707       0.00000000
Si      -2.68517846       2.72008793       0.06263914       0.00000000
Si       2.73543312      -0.00205254      -2.67667824       0.00000000
