10
Lattice="16.290000149 0.0 0.0 0.0 16.290000149 0.0 0.0 0.0 29.1751946751" Properties=species:S:1:pos:R:3:initial_magmoms:R:1 pbc="T T T"
Si       1.34812584       1.35356869      -1.35731758       0.00000000
Si      -1.34407162       1.36518346       1.35086986       0.00000000
Si       1.34289874      -1.35767377       1.36916271       0.00000000
Si      -1.37072206      -1.34851879      -1.35524614       0.00000000
Si      -2.68167611      -0.08234595       2.60709540       0.00000000
Si       2.67057448      -2.70659981      -0.02608262       0.00000000
Si       2.66233174       2.72008793       0.03684827       0.00000000
Si      -0.02059056       2.71023248      -2.69771355       0.00000000
Si       2.69130350       0.02059056       2.72047020       0.00000000
Si      -0.02674818      -2.67998195      -2.74165139       0.00000000
