10
Lattice="16.290000149 0.0 0.0 0.0 16.290000149 0.0 0.0 0.0 29.1751946751" Properties=species:S:1:pos:R:3:initial_magmoms:R:1 pbc="T T T"
H        1.22939002      -1.94771387       0.22152725       0.00000000
H       -1.98316091      -0.62332057      -1.08161199       0.00000000
Si       1.87836734       0.71322508       1.26961695       0.00000000
Si      -0.76132945      -1.87141151       1.28119950       0.00000000
Si       0.63118864      -0.33285357      -2.32943507       0.00000000
Si      -1.78082282       1.54577440       0.63280997       0.00000000
H       -2.63278982      -0.19862397      -1.12508303       0.00000000
H        2.31966344       2.00127539       0.60538529       0.00000000
H       -0.43171758       2.16326315      -2.21585604       0.00000000
H        2.84910474       0.45266652      -1.20764883       0.00000000
