10
Lattice="16.290000149 0.0 0.0 0.0 16.290000149 0.0 0.0 0.0 29.1751946751" Properties=species:S:1:pos:R:3:initial_magmoms:R:1 pbc="T T T"
Si       0.73831168      -1.32527296       1.78881871       0.00000000
Si      -1.75861955       0.96949936       1.26074769       0.00000000
Si       1.39157326       1.82487098      -0.74971498       0.00000000
Si       0.10528227      -1.73213201      -1.80711156       0.00000000
H       -2.14461110      -0.24964425      -1.30885758       0.00000000
Si       2.88137523       0.55983844      -2.03496983       0.00000000
Si       2.72662022      -2.21311707       0.80634403       0.00000000
Si      -0.78164308      -3.17593753       1.71491794       0.00000000
Si      -2.79096573       0.58948624      -2.38939009       0.00000000
Si       1.45448524      -0.71195446      -3.43920112       0.00000000
