10
Lattice="16.290000149 0.0 0.0 0.0 16.290000149 0.0 0.0 0.0 29.1751946751" Properties=species:S:1:pos:R:3:initial_magmoms:R:1 pbc="T T T"
Si      -1.32374170       1.32285878       1.39315639       0.00000000
Si       0.98373682       1.78559253      -1.15983361       0.00000000
Si       1.38051235      -1.32671388       1.36253411       0.00000000
Si      -1.28990737      -1.28651400      -1.50351156       0.00000000
Si      -2.52364682       2.72603053      -0.04600053       0.00000000
Si       1.07333182       1.09618343      -3.39027140       0.00000000
Si      -2.64116288      -2.64545041      -0.10551793       0.00000000
Si      -0.64817911       3.52295362      -1.24393723       0.00000000
Si       0.10585242       2.72583505       2.63577753       0.00000000
Si       0.02502144      -2.72132923       2.66816200       0.00000000
