10
Lattice="16.290000149 0.0 0.0 0.0 16.290000149 0.0 0.0 0.0 29.1751946751" Properties=species:S:1:pos:R:3:initial_magmoms:R:1 pbc="T T T"
Si      -1.02569986       1.49003002       1.47255960       0.00000000
Si       0.91342918       1.83332549      -1.17447664       0.00000000
Si      -1.33889140      -1.45570699      -1.29319050       0.00000000
Si       1.50672727      -1.31178484       1.28986453       0.00000000
H       -1.90757531       2.34548309       0.58653811       0.00000000
H        2.76159486      -1.00020601      -1.32061519       0.00000000
Si       2.32029875      -2.28825632      -0.65638353       0.00000000
Si       0.44193141      -3.00148140      -1.92600048       0.00000000
Si       0.87749344       2.78752854       2.09515826       0.00000000
Si       2.48415986       2.59830389       0.41166200       0.00000000
