10
Lattice="16.290000149 0.0 0.0 0.0 16.290000149 0.0 0.0 0.0 29.1751946751" Properties=species:S:1:pos:R:3:initial_magmoms:R:1 pbc="T T T"
H       -1.18584685       0.51114762      -0.79913776       0.00000000
Si       1.33372747      -1.06818418      -1.62146979       0.00000000
H       -1.75531268       0.63547291       1.53333153       0.00000000
Si       1.29855736       1.67330882       1.17398066       0.00000000
Si      -0.69240646      -1.86064382       1.41975250       0.00000000
H       -0.55371339       2.17122896      -1.90324382       0.00000000
H        1.52550964      -1.07512372       2.54153873       0.00000000
Si      -3.06875910       1.09331965       0.92812129       0.00000000
H       -1.99247879       1.26099262      -2.45100810       0.00000000
Si       2.56015271       0.03046230       2.32540889       0.00000000
