10
Lattice="16.290000149 0.0 0.0 0.0 16.290000149 0.0 0.0 0.0 29.1751946751" Properties=species:S:1:pos:R:3:initial_magmoms:R:1 pbc="T T T"
Si       1.24652710      -1.10749358       1.60358540       0.00000000
Si      -1.81345169      -1.32359021      -0.60168004       0.00000000
Si       1.21888297       1.32046741      -1.49645409       0.00000000
Si      -1.33599178       1.54642600       1.15673812       0.00000000
H        2.85623976      -0.63950957      -0.73355192       0.00000000
Si      -0.64795105      -1.12366629       2.94368962       0.00000000
Si      -0.20939166      -2.85772215      -1.68583027       0.00000000
Si       2.74882350       2.05029200       0.10949451       0.00000000
Si      -3.03989322       0.54276652      -1.55518375       0.00000000
Si      -2.55019952      -1.66983742       1.65931002       0.00000000
