10
Lattice="16.290000149 0.0 0.0 0.0 16.290000149 0.0 0.0 0.0 29.1751946751" Properties=species:S:1:pos:R:3:initial_magmoms:R:1 pbc="T T T"
Si       1.46961619      -1.29280471       1.27139663       0.00000000
Si      -1.39981600      -1.41674457      -1.25820945       0.00000000
Si      -1.23207787       1.43019360       1.41622230       0.00000000
Si       1.38306988       1.33696592      -1.38156217       0.00000000
Si       0.15804558      -2.63139214       2.63542451       0.00000000
Si      -2.58486464       2.74013767      -0.01026967       0.00000000
Si      -2.66098781      -0.02499049      -2.68901934       0.00000000
Si       0.03018537      -2.69883274      -2.67037639       0.00000000
Si       2.70100746       0.06712295       2.71778608       0.00000000
Si       2.76244682       2.69806060      -0.04746804       0.00000000
