10
Lattice="16.290000149 0.0 0.0 0.0 16.290000149 0.0 0.0 0.0 29.1751946751" Properties=species:S:1:pos:R:3:initial_magmoms:R:1 pbc="T T T"
Si       1.37772676       1.36428751       1.30544409       0.00000000
Si      -1.31750263       1.39181761      -1.34095030       0.00000000
Si       1.32810742      -1.35845569      -1.36682870       0.00000000
Si      -1.37090125      -1.35739684       1.33876216       0.00000000
Si      -2.62878248       0.03155373      -2.68656863       0.00000000
Si      -0.00768888       2.67892310       2.66378280       0.00000000
Si       2.73961965       0.04541652      -2.62537949       0.00000000
Si       2.70651836      -0.00224802       2.68210482       0.00000000
Si      -0.09053982      -2.78858739      -2.60286208       0.00000000
Si      -0.00822645      -2.72323190       2.67449010       0.00000000
