10
Lattice="16.290000149 0.0 0.0 0.0 16.290000149 0.0 0.0 0.0 29.1751946751" Properties=species:S:1:pos:R:3:initial_magmoms:R:1 pbc="T T T"
Si       1.34707061       1.34778574      -1.36840416       0.00000000
Si       1.35109424      -1.35858601       1.36000170       0.00000000
Si      -1.33014403       1.34962651       1.39118998       0.00000000
Si      -1.36396008      -1.33175638      -1.37806115       0.00000000
Si       2.67757266       2.69369813       0.04603846       0.00000000
Si      -2.70501806      -2.68392413       0.00685617       0.00000000
Si      -2.69886044       2.70629030       0.05079401       0.00000000
Si       2.69151690       0.00434943       2.72458391       0.00000000
Si       2.69796774      -0.02109555      -2.72875596       0.00000000
Si      -2.67826988      -0.00394218       2.74850756       0.00000000
