10
Lattice="16.290000149 0.0 0.0 0.0 16.290000149 0.0 0.0 0.0 29.1751946751" Properties=species:S:1:pos:R:3:initial_magmoms:R:1 pbc="T T T"
Si       1.37129319       1.19789168       1.47777029       0.00000000
Si       1.16005261      -1.58689851      -1.33599051       0.00000000
Si      -1.46519657      -1.34065887       1.37426545       0.00000000
Si      -0.27799765       1.81907988      -1.57616072       0.00000000
H        0.37116700      -0.62736863      -2.72049938       0.00000000
Si       2.57208449      -0.14354569      -2.62451299       0.00000000
Si       0.61514559       0.92314779      -3.56377920       0.00000000
Si       2.70440816       2.60611495       0.12047021       0.00000000
Si      -0.06367386       2.49964351       2.83076119       0.00000000
Si       2.54321861      -2.85979912       0.17825256       0.00000000
