10
Lattice="16.290000149 0.0 0.0 0.0 16.290000149 0.0 0.0 0.0 29.1751946751" Properties=species:S:1:pos:R:3:initial_magmoms:R:1 pbc="T T T"
Si      -1.36570474      -0.55952893      -0.26371458       0.00000000
H        0.91414594      -1.76147030      -0.43613999       0.00000000
H        1.58138434      -0.82920988       1.18340425       0.00000000
Si       1.04624155      -1.08809056       2.56899259       0.00000000
Si      -2.72898227       0.79371397       1.06647007       0.00000000
Si      -1.84072115      -0.13937724      -2.47405651       0.00000000
Si       2.04121847      -1.81866449      -1.44466811       0.00000000
Si      -1.18657990       2.10590606       2.25594275       0.00000000
Si      -0.01083285       1.15137721      -3.11553151       0.00000000
Si      -1.81167608      -2.77343769       0.33837391       0.00000000
