10
Lattice="10.86 0.0 0.0 0.0 10.86 0.0 0.0 0.0 10.86" Properties=species:S:1:pos:R:3:initial_magmoms:R:1 pbc="T T T"
Si       1.32301950       1.39198050      -1.28774622       0.00000000
Si      -1.39198050      -1.32301950      -1.28774622       0.00000000
Si       1.32301950      -1.32301950       1.42725378       0.00000000
Si      -1.39595526       1.39595526       1.30350408       0.00000000
Si       2.68051950       0.03448050      -2.64524622       0.00000000
Si      -0.03448050      -2.68051950      -2.64524622       0.00000000
Si       2.68051950      -2.68051950       0.06975378       0.00000000
Si      -0.03448050       2.74948050      -2.64524622       0.00000000
Si      -2.74948050       0.03448050      -2.64524622       0.00000000
Si       2.68051950       2.74948050       0.06975378       0.00000000
