10
Lattice="10.86 0.0 0.0 0.0 10.86 0.0 0.0 0.0 10.86" Properties=species:S:1:pos:R:3:initial_magmoms:R:1 pbc="T T T"
Si      -1.40216718       1.40216718      -1.28705118       0.00000000
Si       1.39595526      -1.39595526      -1.30350408       0.00000000
Si       0.00397476       2.71102524      -2.59125030       0.00000000
Si      -2.71102524      -0.00397476      -2.59125030       0.00000000
Si       2.71897476      -0.00397476      -2.59125030       0.00000000
Si       0.00397476      -2.71897476      -2.59125030       0.00000000
Si      -2.71102524       2.71102524       0.12374970       0.00000000
Si       2.71897476       2.71102524       0.12374970       0.00000000
Si      -2.71102524      -2.71897476       0.12374970       0.00000000
Si       2.71897476      -2.71897476       0.12374970       0.00000000
