10
Lattice="16.2900001489832 0.0 0.0 0.0 16.2900001489832 0.0 0.0 0.0 29.4727966878115" Properties=species:S:1:pos:R:3:initial_magmoms:R:1 pbc="T T T"
Si       1.40286223       1.36588556       1.30708906       0.00000000
Si      -1.33102333       1.34409443      -1.41065647       0.00000000
Si       1.34641738      -1.32685309      -1.41469424       0.00000000
Si      -1.35897697      -1.32965497       1.42197402       0.00000000
Si      -2.68830614      -2.65735514      -0.01833208       0.00000000
Si       0.07143165       2.72795600       2.65231592       0.00000000
Si       2.69273702      -2.71451675      -0.06472226       0.00000000
Si       2.74624968       0.01034795       2.68482441       0.00000000
Si      -2.68812695       2.74220976      -0.10356741       0.00000000
Si      -0.01384650      -2.69951366      -2.75503156       0.00000000
