10
Lattice="16.2900001489832 0.0 0.0 0.0 16.2900001489832 0.0 0.0 0.0 29.4727966878115" Properties=species:S:1:pos:R:3:initial_magmoms:R:1 pbc="T T T"
Si       1.33143058      -1.36207044      -1.34522686       0.00000000
Si      -1.30554577      -1.33322248       1.43105164       0.00000000
Si       1.51200523       1.23553135       1.31716876       0.00000000
Si      -1.38166894       1.33815835      -1.37340285       0.00000000
Si       0.17185950       2.61151508       2.63483855       0.00000000
Si      -2.56292201       0.17834292       2.71367828       0.00000000
Si       2.70746318       0.02298519      -2.66554921       0.00000000
Si      -0.07143165      -2.72795600      -2.65231592       0.00000000
Si       2.67481802      -2.71760806       0.03250849       0.00000000
Si      -2.75509515       2.64710873      -0.01075757       0.00000000
