10
Lattice="16.2900001489832 0.0 0.0 0.0 16.2900001489832 0.0 0.0 0.0 29.4727966878115" Properties=species:S:1:pos:R:3:initial_magmoms:R:1 pbc="T T T"
Si      -1.37130850       1.36280512      -1.33989818       0.00000000
Si      -1.35822763      -1.32999706       1.38612036       0.00000000
Si       1.25009461      -1.40094001      -1.44547563       0.00000000
Si       1.34993602       1.38253231       1.37556910       0.00000000
Si       2.66960522      -2.71482626      -0.07414766       0.00000000
Si      -2.71002071      -2.69785208       0.02272942       0.00000000
Si       0.01479132      -2.68758938       2.72987358       0.00000000
Si      -0.01803303       2.69768918      -2.73281883       0.00000000
Si       2.68081274      -0.07200180      -2.75131092       0.00000000
Si       2.70938540       2.72935695      -0.02380813       0.00000000
