10
Lattice="16.2900001489832 0.0 0.0 0.0 16.2900001489832 0.0 0.0 0.0 29.4727966878115" Properties=species:S:1:pos:R:3:initial_magmoms:R:1 pbc="T T T"
Si      -1.36068742      -1.41711598       1.28315715       0.00000000
Si       1.35542575      -1.37469682      -1.35274242       0.00000000
Si      -1.39180132       1.31878954      -1.37811850       0.00000000
Si       1.29472921       1.37373571       1.43567887       0.00000000
Si      -2.73411362      -0.10816560       2.64580243       0.00000000
Si       2.69299766       2.69684210       0.03831464       0.00000000
Si       0.02098152      -2.75527434       2.65656000       0.00000000
Si      -0.03803715       2.68602554      -2.73437113       0.00000000
Si      -2.73751824       2.68970708       0.01184806       0.00000000
Si       2.71365338      -0.04469976      -2.73886279       0.00000000
