10
Lattice="16.2900001489832 0.0 0.0 0.0 16.2900001489832 0.0 0.0 0.0 29.4727966878115" Properties=species:S:1:pos:R:3:initial_magmoms:R:1 pbc="T T T"
Si       2.15925581      -0.90644077      -0.12416889       0.00000000
Si       0.12385287       0.24993747       2.37356221       0.00000000
Si      -1.60725286      -1.70694767      -0.60578386       0.00000000
Si      -0.21559815       1.68217058      -1.73647824       0.00000000
Si       2.48266118      -0.46724607      -2.44553478       0.00000000
Si      -1.00765054      -1.79351273       3.01388819       0.00000000
H       -2.70083315       2.46369962      -0.43083334       0.00000000
Si      -3.08457669      -0.58116205      -2.09274540       0.00000000
Si      -1.55256733       3.37116666      -0.79614866       0.00000000
Si       1.95942638      -3.14108670       0.83985681       0.00000000
