10
Lattice="16.2900001489832 0.0 0.0 0.0 16.2900001489832 0.0 0.0 0.0 29.4727966878115" Properties=species:S:1:pos:R:3:initial_magmoms:R:1 pbc="T T T"
H        0.94799656       0.87169420       0.83776425       0.00000000
Si       0.29812329       0.07739379      -2.30259171       0.00000000
Si      -0.01863576      -2.20169126       0.77171571       0.00000000
Si      -1.92911069       1.35153244      -0.08894890       0.00000000
H       -1.12342357       1.20047527       2.75750433       0.00000000
H        1.35039214       1.68130721       2.55069372       0.00000000
Si      -2.48503952       1.07917993       2.11493842       0.00000000
Si      -0.14371038       2.36149616      -2.74995929       0.00000000
Si      -0.99541675       3.45038493      -0.70348618       0.00000000
Si       2.20330397      -1.10657971      -2.91105760       0.00000000
