10
Lattice="16.2900001489832 0.0 0.0 0.0 16.2900001489832 0.0 0.0 0.0 29.4727966878115" Properties=species:S:1:pos:R:3:initial_magmoms:R:1 pbc="T T T"
Si       1.48573539       1.33025933      -1.26090519       0.00000000
Si       1.33032286      -1.25653517       1.49104900       0.00000000
Si      -1.35301483       1.43120846       1.34136592       0.00000000
Si      -1.42648273      -1.26908712      -1.45097525       0.00000000
Si       0.08592975       2.69216850      -2.58774102       0.00000000
Si       2.62961164      -2.69175800       0.15464376       0.00000000
Si      -2.81175177      -2.53392418       0.00554089       0.00000000
Si      -0.04131144      -2.62153180       2.83286332       0.00000000
Si      -2.71744895       0.11828495       2.77321923       0.00000000
Si      -0.04360833      -2.75344823      -2.74338686       0.00000000
