10
Lattice="16.2900001489832 0.0 0.0 0.0 16.2900001489832 0.0 0.0 0.0 29.4727966878115" Properties=species:S:1:pos:R:3:initial_magmoms:R:1 pbc="T T T"
Si       2.28130049      -0.28958733       0.50203962       0.00000000
Si      -1.00022230      -1.48757023      -1.57458416       0.00000000
Si       0.19982943       2.23464593      -0.96402571       0.00000000
Si      -1.10192077      -0.12349449       2.18187114       0.00000000
Si       0.57751309       0.89801884       3.46877133       0.00000000
Si      -2.30086478      -0.05154156      -2.91203020       0.00000000
Si      -1.95942638       3.14108670      -0.83985681       0.00000000
Si       2.48269376      -0.28595466       2.86030545       0.00000000
Si      -2.73891918      -2.74225863      -0.47071004       0.00000000
Si      -2.96707692       1.34757397       2.17403137       0.00000000
