10
Lattice="16.2900001489832 0.0 0.0 0.0 16.2900001489832 0.0 0.0 0.0 29.4727966878115" Properties=species:S:1:pos:R:3:initial_magmoms:R:1 pbc="T T T"
Si       1.44619363       1.34604499       1.29397367       0.00000000
Si      -1.83927134       1.26686093      -0.79367294       0.00000000
Si      -1.00853020      -2.00506705       0.86626444       0.00000000
Si       1.13577139      -1.32623016      -1.65654801       0.00000000
Si      -0.72233119      -2.87368244      -1.37493544       0.00000000
Si       2.25403103       2.97792997      -0.32425971       0.00000000
Si       0.01682757       2.74949529       2.58550109       0.00000000
Si      -1.07139331       2.46140664      -2.65502742       0.00000000
Si      -3.41892894      -0.26518100      -1.66229521       0.00000000
Si       3.06608754      -0.06272525       2.39890881       0.00000000
