10
Lattice="16.2900001489832 0.0 0.0 0.0 16.2900001489832 0.0 0.0 0.0 29.4727966878115" Properties=species:S:1:pos:R:3:initial_magmoms:R:1 pbc="T T T"
Si       1.36291915      -1.35088084      -1.39916208       0.00000000
Si      -1.27954693       1.39846393      -1.43332105       0.00000000
Si       1.36790389       1.41115384       1.33738710       0.00000000
Si      -1.39406563      -1.11055447       1.61563977       0.00000000
Si      -1.82353520       0.82714105       2.98541747       0.00000000
Si      -2.57391776       2.67007763       0.08971519       0.00000000
Si      -0.24853653       2.58888827       2.65373061       0.00000000
Si       2.81442333      -2.62063748      -0.04170401       0.00000000
Si       0.00175932      -2.74828593      -2.74833829       0.00000000
Si      -2.65746917       0.07534125      -2.84094182       0.00000000
