10
Lattice="16.2900001489832 0.0 0.0 0.0 16.2900001489832 0.0 0.0 0.0 29.4727966878115" Properties=species:S:1:pos:R:3:initial_magmoms:R:1 pbc="T T T"
Si       1.34477209      -1.43311276      -1.30950583       0.00000000
Si       1.26685702       1.43156521       1.39789475       0.00000000
Si      -1.25046928      -1.41892417       1.42966642       0.00000000
Si      -1.53466462       0.96985774      -1.58507648       0.00000000
Si      -3.34577055      -0.78960889      -1.34699523       0.00000000
Si      -2.66090636      -2.63715554       0.02537608       0.00000000
Si       2.78150124       2.59226030      -0.01450062       0.00000000
Si       2.66997989       0.02529837       2.74421210       0.00000000
Si      -2.65210976      -0.08034228       2.76269788       0.00000000
Si       2.67053375      -2.76631896       0.13483804       0.00000000
