10
Lattice="16.2900001489832 0.0 0.0 0.0 16.2900001489832 0.0 0.0 0.0 29.4727966878115" Properties=species:S:1:pos:R:3:initial_magmoms:R:1 pbc="T T T"
Si       1.43071813       1.32893821      -1.30583529       0.00000000
Si      -1.25009461       1.40094001       1.44547563       0.00000000
Si       1.41951061      -1.31388625       1.37132797       0.00000000
Si      -1.42149799      -1.27628893      -1.45990846       0.00000000
Si       0.03816747       2.65851173      -2.62983112       0.00000000
Si      -2.68596038      -2.63762958       0.01289140       0.00000000
Si      -2.62140311       2.76374514       0.10557745       0.00000000
Si       0.02251278      -2.58317211      -2.81164881       0.00000000
Si       0.08703747      -2.65580759       2.78049017       0.00000000
Si       2.79358842      -2.64871982      -0.01656076       0.00000000
