10
Lattice="16.2900001489832 0.0 0.0 0.0 16.2900001489832 0.0 0.0 0.0 29.4727966878115" Properties=species:S:1:pos:R:3:initial_magmoms:R:1 pbc="T T T"
Si       1.38116395       1.33639903      -1.37506217       0.00000000
Si       1.38443824      -1.33600807       1.37820692       0.00000000
Si      -1.29528307       1.37223703       1.43090428       0.00000000
Si      -1.37259541      -1.37547874      -1.36639717       0.00000000
Si       2.70205490       2.64992690       0.09130672       0.00000000
Si      -2.69226461       2.72187983       0.08331960       0.00000000
Si      -2.70506855      -2.71740008       0.04276503       0.00000000
Si       0.00687438       2.70117524      -2.73509322       0.00000000
Si       0.05602131      -2.66788337       2.78008049       0.00000000
Si       0.00148239      -2.71031231      -2.75428590       0.00000000
