10
Lattice="16.2900001489832 0.0 0.0 0.0 16.2900001489832 0.0 0.0 0.0 29.4727966878115" Properties=species:S:1:pos:R:3:initial_magmoms:R:1 pbc="T T T"
Si      -1.12384711      -1.63548181       1.24431200       0.00000000
Si      -1.36410832       1.35909100      -1.35751702       0.00000000
Si       1.36350559      -1.34873545      -1.37160501       0.00000000
Si       1.23820291       1.39251808       1.46759791       0.00000000
Si      -2.51074514      -0.18034659       2.62113370       0.00000000
Si       2.55298511      -2.77692375       0.09581606       0.00000000
Si       0.61199902      -3.48961125       1.38094789       0.00000000
Si       2.72593604       2.66740607       0.13227391       0.00000000
Si       0.01220121       2.69138495      -2.72078123       0.00000000
Si      -2.68108967       2.74846512       0.02746865       0.00000000
