10
Lattice="16.2900001489832 0.0 0.0 0.0 16.2900001489832 0.0 0.0 0.0 29.4727966878115" Properties=species:S:1:pos:R:3:initial_magmoms:R:1 pbc="T T T"
Si       0.25427534      -0.52582491      -2.28411227       0.00000000
Si       0.98918257       2.15485751      -0.13651799       0.00000000
Si       1.64994244      -1.36539523       1.16022611       0.00000000
Si      -2.13627062       0.39123693       1.20417005       0.00000000
H       -2.80337871      -0.93978640       1.55784361       0.00000000
Si       2.62622495      -0.24610932      -2.31473451       0.00000000
Si       0.17586684       2.98242210       1.88216227       0.00000000
H       -3.20577429      -1.74939941      -0.15508586       0.00000000
Si       3.17231463       1.65600884      -0.93735283       0.00000000
Si      -1.28311444       1.61163487       3.10967478       0.00000000
