10
Lattice="16.2900001489832 0.0 0.0 0.0 16.2900001489832 0.0 0.0 0.0 29.4727966878115" Properties=species:S:1:pos:R:3:initial_magmoms:R:1 pbc="T T T"
Si       1.56618577       1.66516382       0.61942977       0.00000000
Si       1.32240592      -1.98830855      -0.15794472       0.00000000
Si      -1.69240070      -0.51113133       1.72474806       0.00000000
Si      -0.97622713       0.88914079      -2.17217459       0.00000000
H        1.15064416      -0.52282755      -2.60683939       0.00000000
H        2.32143905      -1.74255761      -1.26818497       0.00000000
H       -1.16266618       3.31276701       0.05252052       0.00000000
Si      -0.26938773      -3.43495830      -1.07581602       0.00000000
Si       0.10086768       3.50873571       0.84940600       0.00000000
Si       3.20487834       1.54303768      -1.12503560       0.00000000
