10
Lattice="16.2900001489832 0.0 0.0 0.0 16.2900001489832 0.0 0.0 0.0 29.4727966878115" Properties=species:S:1:pos:R:3:initial_magmoms:R:1 pbc="T T T"
Si      -1.30618108      -1.51042347      -1.25459801       0.00000000
Si      -1.44401077       1.30688318       1.35174035       0.00000000
Si       1.33954300      -1.36339792       1.42212139       0.00000000
Si       1.33807690       1.35865280      -1.43022640       0.00000000
H       -2.27063054      -0.66765217      -2.05705384       0.00000000
Si       2.73116513       2.62638948       0.02163303       0.00000000
Si       2.67677282      -2.71775684       0.02740970       0.00000000
Si      -0.02251278       2.58317211       2.81164881       0.00000000
Si      -2.82082530      -2.67111857       0.15779735       0.00000000
Si       2.70088202      -0.01686504      -2.81008380       0.00000000
