10
Lattice="16.2900001489832 0.0 0.0 0.0 16.2900001489832 0.0 0.0 0.0 29.4727966878115" Properties=species:S:1:pos:R:3:initial_magmoms:R:1 pbc="T T T"
Si      -1.42882849      -1.27889533       1.37033768       0.00000000
Si       1.31672071      -1.43039233      -1.36615254       0.00000000
Si      -1.43446483       1.32268285      -1.36193793       0.00000000
Si       1.39556431       1.36277254       1.38253942       0.00000000
Si      -0.04660569      -2.58774797       2.73931962       0.00000000
Si      -0.09005112       2.69316056       2.67760358       0.00000000
Si      -0.06760350       2.70373277      -2.71376670       0.00000000
Si      -2.71963181      -2.70247844      -0.05900454       0.00000000
Si       2.61739577      -0.07763814      -2.81232373       0.00000000
Si       2.72440478       2.71339274      -0.01066915       0.00000000
