10
Lattice="16.2900001489832 0.0 0.0 0.0 16.2900001489832 0.0 0.0 0.0 29.4727966878115" Properties=species:S:1:pos:R:3:initial_magmoms:R:1 pbc="T T T"
Si      -1.28896255       1.30868974       1.45035632       0.00000000
Si      -1.53950275      -1.37197639      -1.23470387       0.00000000
Si       1.42454422      -1.38966733       1.36075902       0.00000000
Si       1.21748203       1.58444686      -1.41348586       0.00000000
H       -1.91492210      -0.42687945      -2.37276644       0.00000000
Si      -0.11013669      -2.77542669      -2.52623130       0.00000000
H       -0.74797165       3.67390002       0.95465336       0.00000000
Si      -3.23239215       2.11900322       0.24789569       0.00000000
Si      -2.73126288      -0.01967832       2.75426232       0.00000000
Si       0.10212201       2.49336371       2.97280311       0.00000000
