10
Lattice="16.2900001489832 0.0 0.0 0.0 16.2900001489832 0.0 0.0 0.0 29.4727966878115" Properties=species:S:1:pos:R:3:initial_magmoms:R:1 pbc="T T T"
Si      -0.32861817      -0.84546730      -1.22506627       0.00000000
H        0.51992793      -2.00244827       1.45825503       0.00000000
Si      -1.39031893      -0.05152527       2.13492097       0.00000000
Si      -2.24542991       0.27689742      -1.99840298       0.00000000
Si       0.05422941       3.03468042       0.11523864       0.00000000
Si      -2.06944904       2.20638278      -0.68984028       0.00000000
Si       1.81003079      -0.98023447      -2.38535133       0.00000000
Si       2.83486728       0.13501152       1.42371292       0.00000000
Si      -1.16317117      -2.95353993      -0.41049711       0.00000000
Si       1.76226851       2.20473749       1.61001046       0.00000000
