10
Lattice="16.2900001489832 0.0 0.0 0.0 16.2900001489832 0.0 0.0 0.0 29.4727966878115" Properties=species:S:1:pos:R:3:initial_magmoms:R:1 pbc="T T T"
Si      -1.37935576      -1.36350559      -1.34736364       0.00000000
Si       1.24095592       1.47212731      -1.39060023       0.00000000
Si      -1.36692649       1.37016820       1.37979550       0.00000000
Si       1.34563546      -1.38914605       1.38565764       0.00000000
H        2.05447853       0.70371172      -2.40567282       0.00000000
H        2.98274790      -0.65023165      -1.87757925       0.00000000
Si       0.20833281      -2.51613713      -2.67850250       0.00000000
Si       2.67157631       2.69693984       0.02889513       0.00000000
Si      -2.71420724      -2.72837954       0.05360512       0.00000000
Si      -2.81510751       0.02572191      -2.63676902       0.00000000
