10
Lattice="16.2900001489832 0.0 0.0 0.0 16.2900001489832 0.0 0.0 0.0 29.4727966878115" Properties=species:S:1:pos:R:3:initial_magmoms:R:1 pbc="T T T"
Si      -0.94799656      -0.87169420      -0.83776425       0.00000000
H        0.40239558       0.80961301       1.71292947       0.00000000
Si       1.06950367       2.14063634       1.35925591       0.00000000
H       -2.07142013       0.32878107       1.91974009       0.00000000
Si      -2.87710725       0.47983824      -0.92671315       0.00000000
Si      -0.96663232      -3.07338546      -0.06604854       0.00000000
Si      -0.64987327      -0.79430041      -3.14035596       0.00000000
H       -0.75321703      -1.36883242       3.03339918       0.00000000
Si      -1.94341331       2.57869073      -1.54125043       0.00000000
H        1.85896595      -1.13489173       2.88208584       0.00000000
