10
Lattice="16.2900001489832 0.0 0.0 0.0 16.2900001489832 0.0 0.0 0.0 29.4727966878115" Properties=species:S:1:pos:R:3:initial_magmoms:R:1 pbc="T T T"
H       -0.92343124       0.52623216       1.10372676       0.00000000
Si       0.39658005       1.67141918      -1.51395862       0.00000000
Si       2.02132838      -0.85193443       0.77227569       0.00000000
Si      -1.24126543      -1.48840102      -1.32427170       0.00000000
Si       2.51709824      -1.41237559      -1.46506325       0.00000000
H        1.47869218      -2.47587803      -1.78776090       0.00000000
Si      -2.98401200       0.01236411      -1.70650440       0.00000000
Si       1.92681380       0.46019250      -2.83876083       0.00000000
Si      -2.07598133      -2.77936236       0.46416707       0.00000000
Si       1.25345035      -2.04648014       2.63363017       0.00000000
