10
Lattice="16.2900001489832 0.0 0.0 0.0 16.2900001489832 0.0 0.0 0.0 29.4727966878115" Properties=species:S:1:pos:R:3:initial_magmoms:R:1 pbc="T T T"
Si      -0.55066717      -1.07808850       0.96157946       0.00000000
H       -1.31820310       1.69761350      -1.11365910       0.00000000
H        2.61218297       0.23394069      -0.15131334       0.00000000
H       -0.59515516       2.42966981       0.97531379       0.00000000
H        1.15561261       2.17844543      -1.32046971       0.00000000
Si       0.21493026      -0.35129385       3.10021401       0.00000000
Si      -2.93654946      -0.87949711       0.80269162       0.00000000
Si       0.11575674      -3.26189334       0.06534119       0.00000000
Si       1.56576223      -2.49144149      -1.62760572       0.00000000
H        0.75321703       1.36883242      -3.03339918       0.00000000
