10
Lattice="16.2900001489832 0.0 0.0 0.0 16.2900001489832 0.0 0.0 0.0 29.4727966878115" Properties=species:S:1:pos:R:3:initial_magmoms:R:1 pbc="T T T"
Si      -1.40711392      -1.19156464       1.45598563       0.00000000
Si       1.42501663      -1.74659753      -0.70351566       0.00000000
Si      -1.31553154       0.96601330      -1.73933710       0.00000000
Si       1.35812989       1.53585379       1.22229582       0.00000000
H        2.78663259      -1.62530218      -0.06094974       0.00000000
Si       2.65124639       0.16350273       2.73519342       0.00000000
Si       1.98094547      -1.47424501      -2.90740297       0.00000000
Si      -3.60284304       0.76178557      -1.05085257       0.00000000
Si      -2.79894783      -2.61474050       0.16139303       0.00000000
Si      -0.08135226      -2.52477083       2.90032950       0.00000000
