10
Lattice="16.2900001489832 0.0 0.0 0.0 16.2900001489832 0.0 0.0 0.0 29.4727966878115" Properties=species:S:1:pos:R:3:initial_magmoms:R:1 pbc="T T T"
Si      -0.79008130       1.89218126      -1.25795791       0.00000000
Si       0.87386077      -0.87873148      -2.07379439       0.00000000
Si       1.75378142       1.02819223       1.31693297       0.00000000
Si      -1.21748203      -1.58444686       1.41348586       0.00000000
Si       1.42460938       2.58553253      -1.84785593       0.00000000
Si       3.20378691       1.79864408      -0.37601394       0.00000000
H       -1.96545368       2.08945316       2.36813921       0.00000000
Si      -2.50644458      -0.27575712       2.86384218       0.00000000
H       -3.13240413      -2.01132632      -0.95928059       0.00000000
Si      -0.51978132      -2.72798859      -2.73097881       0.00000000
