10
Lattice="16.2900001489832 0.0 0.0 0.0 16.2900001489832 0.0 0.0 0.0 29.4727966878115" Properties=species:S:1:pos:R:3:initial_magmoms:R:1 pbc="T T T"
Si      -1.33696918       1.68899609       0.94032958       0.00000000
Si       2.13763898       0.19660401      -0.98335986       0.00000000
Si      -1.40098888      -0.96832648      -1.67261068       0.00000000
Si       0.21559815      -1.68217058       1.73647824       0.00000000
H       -2.48523500       0.78152905       1.30564489       0.00000000
H        1.04138713       2.92727067       0.02074885       0.00000000
Si       2.69825933      -2.14941665      -0.70905654       0.00000000
Si      -2.86897854      -2.26333262      -0.35626717       0.00000000
Si      -1.39165471      -3.38911824       1.13069437       0.00000000
Si       2.37485396      -2.58861134       1.61230934       0.00000000
