10
Lattice="16.2900001489832 0.0 0.0 0.0 16.2900001489832 0.0 0.0 0.0 29.4727966878115" Properties=species:S:1:pos:R:3:initial_magmoms:R:1 pbc="T T T"
Si      -1.31217580       1.22890132      -1.49880960       0.00000000
Si      -1.30930876      -1.43252632       1.36588729       0.00000000
Si       1.47199699      -1.36995643      -1.30924057       0.00000000
Si       0.75763162       1.87525595       1.30240289       0.00000000
Si      -2.60693759       2.59518001      -0.09454873       0.00000000
Si       2.69861771       2.58794345       0.01727106       0.00000000
Si       0.94100815       1.06847740       3.53809135       0.00000000
Si       0.10088397       2.62723461      -2.78373512       0.00000000
Si      -2.59761971      -0.09645309       2.84884053       0.00000000
Si       0.09412362      -2.78102883       2.68553176       0.00000000
