10
Lattice="16.2900001489832 0.0 0.0 0.0 16.2900001489832 0.0 0.0 0.0 29.4727966878115" Properties=species:S:1:pos:R:3:initial_magmoms:R:1 pbc="T T T"
Si      -1.56497543      -1.11506517       1.34680386       0.00000000
Si       1.12774042       1.55390311       1.37070630       0.00000000
Si      -1.41017156       1.38680029      -1.33543579       0.00000000
Si       2.23814828      -2.27458249       0.00095704       0.00000000
H        1.10809468      -1.43181282      -2.79286559       0.00000000
Si      -0.30043647      -2.49136004       2.76378224       0.00000000
Si       2.50220918       0.26494056       2.76734550       0.00000000
Si       0.00159642       2.70871751      -2.69304122       0.00000000
Si       2.46187514       2.98445835       0.04405496       0.00000000
Si      -2.98631541      -2.46168730       0.00040947       0.00000000
