10
Lattice="16.2900001489832 0.0 0.0 0.0 16.2900001489832 0.0 0.0 0.0 29.4727966878115" Properties=species:S:1:pos:R:3:initial_magmoms:R:1 pbc="T T T"
Si       0.18337653      -0.80677855       2.23568847       0.00000000
Si      -0.75763162      -1.87525595      -1.30240289       0.00000000
Si       1.94098610       0.71268751      -1.28513183       0.00000000
Si      -1.73584613       1.85412945      -0.13663589       0.00000000
Si      -2.06980742      -0.64635463      -2.80121249       0.00000000
Si       0.75150658       2.14087580      -2.75255290       0.00000000
Si      -3.36456921       0.71992406      -1.39695162       0.00000000
Si       1.93160306       0.43062615       3.24312760       0.00000000
Si      -0.61199902       3.48961125      -1.38094789       0.00000000
H       -0.91287532       1.92388811       3.23979718       0.00000000
