10
Lattice="16.2900001489832 0.0 0.0 0.0 16.2900001489832 0.0 0.0 0.0 29.4727966878115" Properties=species:S:1:pos:R:3:initial_magmoms:R:1 pbc="T T T"
Si       1.41043708       1.21823137       1.40429034       0.00000000
Si       1.29145492      -1.51974298      -1.22132322       0.00000000
Si      -1.45722848      -1.44529768       1.19521032       0.00000000
Si      -0.68486419       1.84754666      -1.37237131       0.00000000
H       -3.26607987       1.38978136       0.41506540       0.00000000
Si      -2.58460400       2.57486258      -0.19443204       0.00000000
Si       2.61384455      -0.21913308      -2.62947450       0.00000000
Si      -1.16343833       0.82552834      -3.45624539       0.00000000
Si       0.00879660       2.55681326       2.73732180       0.00000000
Si       2.66090636       2.63715554      -0.02537608       0.00000000
