10
Lattice="16.2900001489832 0.0 0.0 0.0 16.2900001489832 0.0 0.0 0.0 29.4727966878115" Properties=species:S:1:pos:R:3:initial_magmoms:R:1 pbc="T T T"
Si       1.34126974       1.17781588      -1.48068383       0.00000000
Si      -1.39351177      -1.25535628      -1.40184410       0.00000000
Si       1.07364133      -1.61192809       1.32598112       0.00000000
Si      -0.79921999       1.94404862       1.12267777       0.00000000
Si      -1.92425627       2.73484668      -0.87050852       0.00000000
Si      -2.38039256      -2.54045322       0.24512525       0.00000000
Si       2.46536120       2.60325605      -0.01980572       0.00000000
Si      -0.27101673       2.43946010      -2.62054424       0.00000000
Si       2.32598396      -0.30685473       2.82747275       0.00000000
Si      -1.40471929       1.24289443       3.30846879       0.00000000
