10
Lattice="16.2900001489832 0.0 0.0 0.0 16.2900001489832 0.0 0.0 0.0 29.4727966878115" Properties=species:S:1:pos:R:3:initial_magmoms:R:1 pbc="T T T"
Si      -0.29812329      -0.07739379       2.30259171       0.00000000
Si       1.90518068      -1.18397350      -0.60846589       0.00000000
Si      -1.67943386      -1.02151333      -1.28690019       0.00000000
Si      -0.44183367       2.28410237      -0.44736758       0.00000000
H        0.64987327       0.79430041       3.14035596       0.00000000
Si      -2.22723398       1.27413865       2.21364281       0.00000000
Si       1.70378741      -1.18760617      -2.96673171       0.00000000
Si      -0.57751309      -0.89801884      -3.46877133       0.00000000
Si      -2.11230803      -3.13113351      -0.18880274       0.00000000
Si      -3.54459000       0.44955513      -1.29473996       0.00000000
