10
Lattice="16.2900001489832 0.0 0.0 0.0 16.2900001489832 0.0 0.0 0.0 29.4727966878115" Properties=species:S:1:pos:R:3:initial_magmoms:R:1 pbc="T T T"
Si       1.39980564      -1.36190917       1.32683583       0.00000000
Si       1.51052692       1.19843902      -1.36453154       0.00000000
Si      -1.46706112       1.45588618       1.20075121       0.00000000
Si      -1.27079920      -1.34164441      -1.53255595       0.00000000
Si       2.51369852      -0.79019533      -2.10282510       0.00000000
H        1.32511006      -1.28091529      -2.92328881       0.00000000
Si       2.69125626      -2.41315338      -0.40309944       0.00000000
Si       0.08369802       1.95475115      -3.07312851       0.00000000
Si      -1.40056534       0.08417043      -3.42008227       0.00000000
Si      -0.08592975      -2.69216850       2.58774102       0.00000000
