10
Lattice="16.2900001489832 0.0 0.0 0.0 16.2900001489832 0.0 0.0 0.0 29.4727966878115" Properties=species:S:1:pos:R:3:initial_magmoms:R:1 pbc="T T T"
Si      -1.90518068       1.18397350       0.60846589       0.00000000
Si      -0.20139327      -0.00363267      -2.35826583       0.00000000
Si      -0.15894153      -2.22917249       0.83820634       0.00000000
Si       2.02833308       1.00968679       0.75916030       0.00000000
Si       2.97041637       1.17322210      -1.45059211       0.00000000
Si       1.15966882       1.85046257      -2.84344701       0.00000000
Si      -3.58461453       0.16246017      -0.67843431       0.00000000
Si       1.81297928      -2.51830370       2.12625597       0.00000000
Si      -2.48269376       0.28595466      -2.86030545       0.00000000
Si      -2.20330397       1.10657971       2.91105760       0.00000000
