10
Lattice="16.2900001489832 0.0 0.0 0.0 16.2900001489832 0.0 0.0 0.0 29.4727966878115" Properties=species:S:1:pos:R:3:initial_magmoms:R:1 pbc="T T T"
Si       1.36138789      -1.41019273       1.31764032       0.00000000
Si      -1.28586745       1.38823381       1.42374239       0.00000000
Si      -1.31988097      -1.29603241      -1.48201011       0.00000000
Si       1.36658440       1.38364003      -1.35577812       0.00000000
Si      -2.64829790      -2.62790771      -0.08013653       0.00000000
Si       2.74395767      -0.02107926       2.61140768       0.00000000
Si      -2.65654064       2.74137897       0.01178912       0.00000000
Si       2.75548122      -2.64664447      -0.11597546       0.00000000
Si      -0.00226431       2.68990256      -2.76891030       0.00000000
Si       0.03016908      -2.69523754      -2.81798251       0.00000000
