10
Lattice="16.2900001489832 0.0 0.0 0.0 16.2900001489832 0.0 0.0 0.0 29.4727966878115" Properties=species:S:1:pos:R:3:initial_magmoms:R:1 pbc="T T T"
Si       1.76956643       1.12580191      -1.02907217       0.00000000
Si       0.44183367      -2.28410237       0.44736758       0.00000000
Si      -0.85170637       1.08888877       2.04647311       0.00000000
Si      -1.97125292       0.20890296      -1.48769836       0.00000000
Si       0.22095756       2.85856923      -0.97428224       0.00000000
Si      -1.78540031      -1.00996372       2.66101039       0.00000000
Si      -2.12305943       2.52165944      -0.92061228       0.00000000
Si       0.14371038      -2.36149616       2.74995929       0.00000000
Si      -1.23760018      -3.30561570      -0.83953261       0.00000000
Si      -3.10275633      -1.83454724      -0.84737238       0.00000000
