10
Lattice="16.2900001489832 0.0 0.0 0.0 16.2900001489832 0.0 0.0 0.0 29.4727966878115" Properties=species:S:1:pos:R:3:initial_magmoms:R:1 pbc="T T T"
Si       1.03840606       1.06350243       0.32269765       0.00000000
H       -0.07226244      -2.48169030       1.09108293       0.00000000
H        0.89143768      -1.85015957      -2.03984173       0.00000000
Si      -2.71995761       0.98747700       0.46348920       0.00000000
Si       2.91535617      -0.11084856      -0.34592221       0.00000000
Si       0.54263620       1.62394360       2.56003659       0.00000000
Si      -0.80422102       1.63099717      -2.55249156       0.00000000
Si       0.44812161       2.93607053      -1.05099993       0.00000000
Si      -2.66960522       0.00575200      -1.91490655       0.00000000
Si       2.03970350      -0.94269253      -2.40515705       0.00000000
