10
Lattice="16.2900001489832 0.0 0.0 0.0 16.2900001489832 0.0 0.0 0.0 29.4727966878115" Properties=species:S:1:pos:R:3:initial_magmoms:R:1 pbc="T T T"
Si      -1.38116395      -1.33639903       1.37506217       0.00000000
Si      -1.37428957       1.36477621      -1.36003104       0.00000000
Si       1.32089095       1.31352787       1.46636890       0.00000000
Si       1.34164441      -1.37098270      -1.40763845       0.00000000
Si       2.69733080       2.66180231       0.12474951       0.00000000
Si       2.69860142      -2.69617421       0.02370202       0.00000000
Si      -2.74255184      -0.06905331      -2.66849825       0.00000000
Si       0.00327429      -2.67240710       2.75326909       0.00000000
Si      -2.71397918       2.73230544       0.05900454       0.00000000
Si       0.02899620       2.68913693      -2.77288029       0.00000000
