10
Lattice="16.2900001489832 0.0 0.0 0.0 16.2900001489832 0.0 0.0 0.0 29.4727966878115" Properties=species:S:1:pos:R:3:initial_magmoms:R:1 pbc="T T T"
Si       1.27759213       1.41901176       1.40219778       0.00000000
Si      -1.61989390       1.40877024      -1.10493515       0.00000000
Si      -1.40095630      -1.37250131       1.42898855       0.00000000
Si       1.63781290      -1.10813089      -1.49786647       0.00000000
H        0.71829127       0.42805848      -3.50505235       0.00000000
Si       3.61652664       0.63275536      -1.04513484       0.00000000
Si       2.63875196      -0.01704297       2.78317514       0.00000000
Si       2.88036525       2.60256824       0.11385341       0.00000000
Si      -3.06608754       0.06272525      -2.39890881       0.00000000
Si      -0.08521299       2.79452960       2.78205517       0.00000000
