10
Lattice="16.2900001489832 0.0 0.0 0.0 16.2900001489832 0.0 0.0 0.0 29.4727966878115" Properties=species:S:1:pos:R:3:initial_magmoms:R:1 pbc="T T T"
Si       1.34915410       1.35956341      -1.33204839       0.00000000
Si       1.36803421      -1.30468240       1.38190575       0.00000000
Si      -1.30030039      -1.27734778      -1.51572404       0.00000000
Si      -1.35878149       1.45090144       1.29433913       0.00000000
H        0.27833094       2.18981585      -1.96889776       0.00000000
Si      -2.49608414       0.32391036      -2.76982101       0.00000000
Si       2.69077082      -2.61438212      -0.08178406       0.00000000
Si      -2.70358616      -2.60170850      -0.10287480       0.00000000
Si      -0.00840564      -2.65295684       2.72352514       0.00000000
Si       2.70383540       0.11214036       2.73661107       0.00000000
