10
Lattice="16.2900001489832 0.0 0.0 0.0 16.2900001489832 0.0 0.0 0.0 29.4727966878115" Properties=species:S:1:pos:R:3:initial_magmoms:R:1 pbc="T T T"
Si      -1.32884047      -1.35062020       1.39320857       0.00000000
Si       1.23424444      -1.41237559      -1.44142607       0.00000000
Si      -1.43658253       1.39084021      -1.30649960       0.00000000
Si       1.77987800       0.89407666       1.34080594       0.00000000
Si       2.60499908       2.69501762       0.02393191       0.00000000
Si       2.62550819      -2.67998195      -0.01880364       0.00000000
Si       2.61855236      -0.02941974      -2.76186630       0.00000000
Si       0.14351490      -2.61487082       2.80451344       0.00000000
Si      -2.72440478      -2.71339274       0.01066915       0.00000000
Si      -0.13750389       2.63862164      -2.82561596       0.00000000
