10
Lattice="16.2900001489832 0.0 0.0 0.0 16.2900001489832 0.0 0.0 0.0 29.4727966878115" Properties=species:S:1:pos:R:3:initial_magmoms:R:1 pbc="T T T"
H        1.10710425       0.42656994       0.96773928       0.00000000
Si       0.77084118       0.78442867      -2.09351169       0.00000000
Si       0.17754471      -2.37956177       0.06507594       0.00000000
Si      -1.86220766       1.27162999       0.80121798       0.00000000
H       -2.41782698      -0.72417196      -0.58556552       0.00000000
H       -2.21092769      -1.32690196       2.17087779       0.00000000
Si      -0.59491081       3.12023550       1.61357667       0.00000000
Si      -2.65144187       0.07579737       2.62278418       0.00000000
Si       2.76708459       2.01403046      -1.57741355       0.00000000
Si       0.55703623      -3.01013139       2.26831485       0.00000000
