10
Lattice="16.2900001489832 0.0 0.0 0.0 16.2900001489832 0.0 0.0 0.0 29.4727966878115" Properties=species:S:1:pos:R:3:initial_magmoms:R:1 pbc="T T T"
Si      -2.02132838       0.85193443      -0.77227569       0.00000000
Si       1.59179365       1.44664975       0.91787131       0.00000000
Si      -0.76787803      -1.19454571       1.86135447       0.00000000
Si       0.49576986      -0.56044117      -2.23733894       0.00000000
H       -0.54263620      -1.62394360      -2.56003659       0.00000000
H        2.59082678       1.69240070      -0.19236894       0.00000000
H       -2.94475962       1.37816659       0.33145107       0.00000000
H        1.42003189       2.91213075      -1.53102337       0.00000000
Si       0.26938773       3.43495830       1.07581602       0.00000000
Si      -2.34753563      -2.72658764       0.99273221       0.00000000
