10
Lattice="16.2900001489832 0.0 0.0 0.0 16.2900001489832 0.0 0.0 0.0 29.4727966878115" Properties=species:S:1:pos:R:3:initial_magmoms:R:1 pbc="T T T"
H       -0.68543434       0.66686374       1.19238094       0.00000000
Si      -0.25135470      -2.27659268       0.57825627       0.00000000
Si      -1.46069336       0.48472524      -1.80609298       0.00000000
Si       2.34295814       0.04207707       0.56985652       0.00000000
H        0.82121149      -1.50358330      -1.89925649       0.00000000
H        1.04477545       2.88653916       0.22997623       0.00000000
Si       2.04374342      -2.40341033       1.13060595       0.00000000
Si      -3.21929499       1.52510239      -0.57333431       0.00000000
Si      -2.06877626      -1.67627360      -2.50913707       0.00000000
Si      -1.72168523      -2.25186446       2.36681294       0.00000000
