10
Lattice="16.2900001489832 0.0 0.0 0.0 16.2900001489832 0.0 0.0 0.0 29.4727966878115" Properties=species:S:1:pos:R:3:initial_magmoms:R:1 pbc="T T T"
Si      -1.29288844       1.46148994       1.29087902       0.00000000
Si       1.84842795       0.46543788       1.36800933       0.00000000
Si       0.45905220       0.99510724      -2.10444610       0.00000000
Si      -1.26729685      -1.84860551      -0.81235870       0.00000000
H        0.58525084      -1.89485282       2.26669385       0.00000000
H        1.70201505      -2.69366555      -0.64583739       0.00000000
Si       0.06817365       3.31558518       0.80569784       0.00000000
Si       0.59491081      -3.12023550      -1.61357667       0.00000000
Si       0.64822798       3.21429396      -1.46547587       0.00000000
Si      -0.77605561      -2.28773504       2.79711577       0.00000000
