10
Lattice="16.2900001489832 0.0 0.0 0.0 16.2900001489832 0.0 0.0 0.0 29.4727966878115" Properties=species:S:1:pos:R:3:initial_magmoms:R:1 pbc="T T T"
Si      -0.60808290      -2.16099884      -0.70304409       0.00000000
Si       1.46069336      -0.48472524       1.80609298       0.00000000
Si      -1.75860163       1.04037715       1.23275867       0.00000000
Si       0.79141871       1.16198200      -1.99622199       0.00000000
H       -1.89483490       0.19870542      -2.27594831       0.00000000
H        2.28190485      -1.98830855      -0.09316351       0.00000000
H        0.77525903       0.18213849       2.99847392       0.00000000
Si      -0.59398879       3.10617723       1.54452191       0.00000000
Si      -3.25614134      -0.19417680      -1.74552638       0.00000000
Si       1.73794916       3.12898323       0.96231628       0.00000000
