10
Lattice="16.2900001489832 0.0 0.0 0.0 16.2900001489832 0.0 0.0 0.0 29.4727966878115" Properties=species:S:1:pos:R:3:initial_magmoms:R:1 pbc="T T T"
Si       0.29784636      -0.81479811      -1.45218364       0.00000000
Si      -0.43582266       0.56989425       1.64723461       0.00000000
H       -2.54663201       0.67846385      -1.45551406       0.00000000
Si       1.36682875       0.89510456      -2.64040891       0.00000000
Si      -2.11644569       2.08729799      -1.11569272       0.00000000
H        0.54517743       3.01972131       0.86853385       0.00000000
Si       1.63546714      -2.58970766      -0.91056205       0.00000000
Si      -2.30412278       1.86288695       1.22777776       0.00000000
Si       1.56776590       1.32650612       2.51503163       0.00000000
Si      -1.05635764      -1.03137367       3.14719365       0.00000000
