10
Lattice="16.2900001489832 0.0 0.0 0.0 16.2900001489832 0.0 0.0 0.0 29.4727966878115" Properties=species:S:1:pos:R:3:initial_magmoms:R:1 pbc="T T T"
Si      -1.29865510      -1.35896068      -1.43553151       0.00000000
Si       1.30984633      -1.37762902       1.41569632       0.00000000
Si       1.38406357       1.34214940      -1.39332646       0.00000000
Si      -1.34938216       1.44599815       1.32309279       0.00000000
Si      -2.65557302      -2.68426622      -0.04898379       0.00000000
Si       2.73359234      -2.67493205      -0.01170070       0.00000000
Si       2.67100616       0.01977606       2.76487253       0.00000000
Si      -2.65876423       2.80445385      -0.07447776       0.00000000
Si       2.74862802       2.72201015      -0.05219632       0.00000000
Si      -2.68098705      -0.01769094      -2.78960021       0.00000000
