10
Lattice="16.2900001489832 0.0 0.0 0.0 16.2900001489832 0.0 0.0 0.0 29.4727966878115" Properties=species:S:1:pos:R:3:initial_magmoms:R:1 pbc="T T T"
Si      -1.35710362       1.39811533       1.30708906       0.00000000
Si       1.33102333      -1.34409443       1.41065647       0.00000000
Si      -1.41753952      -1.35971654      -1.31328424       0.00000000
Si       1.38510613       1.39658407      -1.30972098       0.00000000
Si       2.67744071      -2.67094752      -0.00403777       0.00000000
Si      -0.04766454      -2.66658180      -2.71007965       0.00000000
Si       0.01063737       2.68554662      -2.70636019       0.00000000
Si      -2.69287223       0.06846850       2.70404068       0.00000000
Si       0.02078604       2.72201993       2.68956953       0.00000000
Si      -2.68207848       0.01657833      -2.73026262       0.00000000
