10
Lattice="16.2900001489832 0.0 0.0 0.0 16.2900001489832 0.0 0.0 0.0 29.4727966878115" Properties=species:S:1:pos:R:3:initial_magmoms:R:1 pbc="T T T"
Si       1.35137769      -1.34200279      -1.41484161       0.00000000
Si       1.44719873       1.41977940       1.23417336       0.00000000
Si      -1.27811341       1.37118633      -1.46783369       0.00000000
Si      -1.42107445      -1.39126375       1.35206455       0.00000000
Si       0.05310540       2.65623113       2.66778914       0.00000000
Si       0.04786002      -2.64339461       2.74135324       0.00000000
Si      -2.69464295      -2.69979059      -0.10819464       0.00000000
Si      -2.62816346       2.77039146      -0.13186129       0.00000000
Si       2.75121813       0.10923227       2.68152346       0.00000000
Si       2.78278815      -2.65013867      -0.07754293       0.00000000
