10
Lattice="16.2900001489832 0.0 0.0 0.0 16.2900001489832 0.0 0.0 0.0 29.4727966878115" Properties=species:S:1:pos:R:3:initial_magmoms:R:1 pbc="T T T"
Si      -1.33576861      -1.32964683       1.39695162       0.00000000
Si       1.35710362      -1.39811533      -1.30708906       0.00000000
Si      -1.38926986       1.38271150      -1.30585120       0.00000000
Si       1.37788966       1.32390460       1.38248047       0.00000000
Si       2.74220976      -0.00153126      -2.61681004       0.00000000
Si       0.00446346       2.63285498       2.74512576       0.00000000
Si      -0.06043590      -2.75783187      -2.62037330       0.00000000
Si      -0.00506619       2.70444953      -2.68893292       0.00000000
Si      -2.71580366      -0.00280188      -2.69865010       0.00000000
Si      -2.72466542       2.70063767       0.15714895       0.00000000
