10
Lattice="16.2900001489832 0.0 0.0 0.0 16.2900001489832 0.0 0.0 0.0 29.4727966878115" Properties=species:S:1:pos:R:3:initial_magmoms:R:1 pbc="T T T"
Si       1.40164048      -1.33858189      -1.33303146       0.00000000
Si      -1.43207183       1.30743541      -1.34608791       0.00000000
Si       1.32439330       1.40612023       1.35689470       0.00000000
Si      -1.36581551      -1.37103157       1.35929084       0.00000000
H       -0.56845585       2.15273981      -2.28506174       0.00000000
Si      -0.00879660      -2.55681326      -2.73732180       0.00000000
Si       2.68923467       0.02909394       2.72259926       0.00000000
Si       2.70132185      -2.71303436       0.05424011       0.00000000
Si       2.65210976       0.08034228      -2.76269788       0.00000000
Si      -2.73748565       0.01097946       2.70090433       0.00000000
