10
Lattice="16.2900001489832 0.0 0.0 0.0 16.2900001489832 0.0 0.0 0.0 29.4727966878115" Properties=species:S:1:pos:R:3:initial_magmoms:R:1 pbc="T T T"
Si      -1.32932917      -1.32770017      -1.44030610       0.00000000
Si       1.35897697       1.32965497      -1.42197402       0.00000000
Si       1.40107033      -1.33162606       1.37935636       0.00000000
Si      -1.36089919       1.43167077       1.31876029       0.00000000
Si      -2.68820026      -2.62399322      -0.05331629       0.00000000
Si       0.12486285       2.72438849       2.66139354       0.00000000
Si      -2.66491859       2.74221790      -0.12858981       0.00000000
Si      -0.00089595      -2.65932623       2.75187503       0.00000000
Si       2.71919198      -2.70643691      -0.03103485       0.00000000
Si       2.76183921       2.69554053      -0.11488496       0.00000000
