10
Lattice="16.28999089631971 0.0 0.0 0.0 16.28999089631971 0.0 0.0 0.0 34.474598006748145" Properties=species:S:1:pos:R:3:initial_magmoms:R:1 pbc="T T T"
Si       1.35957969       1.33737903       1.38340778       0.00000000
Si      -1.35182565      -1.38022696       1.37940873       0.00000000
Si       1.39973454      -1.23193909      -1.49321289       0.00000000
Si      -1.54450377       1.27309543      -1.46517468       0.00000000
Si      -0.38182131      -2.28500614      -2.71553599       0.00000000
Si      -2.72370429       2.68131706       0.02645237       0.00000000
Si       2.72078838       2.68765387       0.00625714       0.00000000
Si       0.00807984       2.69392552       2.74374171       0.00000000
Si       2.71231758      -2.72934847      -0.00041714       0.00000000
Si      -2.70899442      -0.01911078       2.74246615       0.00000000
