10
Lattice="16.28999089631971 0.0 0.0 0.0 16.28999089631971 0.0 0.0 0.0 34.474598006748145" Properties=species:S:1:pos:R:3:initial_magmoms:R:1 pbc="T T T"
Si       1.34112312       1.34734101      -1.36219555       0.00000000
Si       1.35583299      -1.35308682       1.35381822       0.00000000
Si      -1.35783666       1.35747339       1.35426639       0.00000000
Si      -1.33771851      -1.35279070      -1.38336297       0.00000000
Si      -2.58159522       0.09007393      -2.79751866       0.00000000
Si       2.52032364      -0.06088062      -2.85382261       0.00000000
Si       2.71344159       0.00162574       2.71132522       0.00000000
Si      -0.00140094      -2.71356769       2.71160102       0.00000000
Si       2.71300176      -2.71420300      -0.00923920       0.00000000
Si      -2.71515367      -2.71224820      -0.00803259       0.00000000
