10
Lattice="16.28999089631971 0.0 0.0 0.0 16.28999089631971 0.0 0.0 0.0 34.474598006748145" Properties=species:S:1:pos:R:3:initial_magmoms:R:1 pbc="T T T"
Si      -0.22975416      -1.83757390       1.43379933       0.00000000
Si      -1.50226380       0.20307114      -1.81757077       0.00000000
Si      -0.73989180       2.03266620       1.00527984       0.00000000
Si       2.36845197       0.08425188      -0.32743991       0.00000000
Si       0.07905537       3.43135818      -0.69349140       0.00000000
Si      -0.72840735       2.32691247      -2.64130728       0.00000000
Si      -1.15659000      -3.50295992       0.02951027       0.00000000
Si      -3.70587726      -0.34192710      -0.96435847       0.00000000
Si      -1.75014873      -1.42283865       3.13546644       0.00000000
Si       0.04364091       2.22180939       3.22092902       0.00000000
