10
Lattice="16.28999089631971 0.0 0.0 0.0 16.28999089631971 0.0 0.0 0.0 34.474598006748145" Properties=species:S:1:pos:R:3:initial_magmoms:R:1 pbc="T T T"
Si       1.24273152      -1.46696337       1.32150516       0.00000000
Si      -1.49131692      -1.12534578      -1.40503858       0.00000000
Si      -1.46544840       1.28210445       1.30170294       0.00000000
Si       1.71317043       0.89788851      -1.35147912       0.00000000
Si       0.41335875       2.12597532      -2.92516235       0.00000000
Si       2.61643464      -0.09777258       2.67677132       0.00000000
Si      -0.10256184       2.61721656       2.67832267       0.00000000
Si       2.42193204      -2.87518500      -0.17012189       0.00000000
Si      -2.67998682      -2.72423046      -0.11381795       0.00000000
Si       2.71160082       2.74644513      -0.08771032       0.00000000
