10
Lattice="16.28999089631971 0.0 0.0 0.0 16.28999089631971 0.0 0.0 0.0 34.474598006748145" Properties=species:S:1:pos:R:3:initial_magmoms:R:1 pbc="T T T"
Si      -1.50258960      -0.16109181       1.78285483       0.00000000
Si      -1.35943308       1.93868919      -0.58658561       0.00000000
Si       0.40545810      -1.27799937      -2.11912025       0.00000000
Si       2.00666736       0.78654636       1.31086285       0.00000000
Si       0.91559574       3.00778560      -0.85145410       0.00000000
Si       1.89426636      -1.27830888       2.47541542       0.00000000
Si      -0.34223661      -1.52510238       3.22292854       0.00000000
Si      -3.35218063      -1.24001109       0.88682505       0.00000000
Si       1.45354041       0.42393096      -3.35765535       0.00000000
Si       2.75004522       1.79523945      -1.92944090       0.00000000
