10
Lattice="16.28999089631971 0.0 0.0 0.0 16.28999089631971 0.0 0.0 0.0 34.474598006748145" Properties=species:S:1:pos:R:3:initial_magmoms:R:1 pbc="T T T"
Si      -2.13623802       0.58674951      -0.70769494       0.00000000
Si       1.59990606       0.33265809      -1.70449403       0.00000000
Si       0.80746272       1.10444571       1.94781588       0.00000000
Si      -0.77385645      -2.12384133       0.82373651       0.00000000
Si      -2.89256643       1.38691431       1.45831079       0.00000000
Si       0.72840735      -2.32691247       2.64130728       0.00000000
Si      -0.01148445      -0.29424627       3.64658712       0.00000000
Si       1.75132161      -1.51697367      -3.13815546       0.00000000
Si       0.28227312       3.38370993       1.93492237       0.00000000
Si      -2.98240578      -1.12091490      -2.36206288       0.00000000
