10
Lattice="16.28999089631971 0.0 0.0 0.0 16.28999089631971 0.0 0.0 0.0 34.474598006748145" Properties=species:S:1:pos:R:3:initial_magmoms:R:1 pbc="T T T"
Si      -0.78353271      -0.18914319      -2.21564918       0.00000000
Si       2.37076515      -0.22991706      -0.07439622       0.00000000
Si      -0.84540213      -1.88967258       1.22781349       0.00000000
Si      -0.16907391       2.17276020       1.14055824       0.00000000
Si       1.84630860      -2.08793817       2.00645720       0.00000000
Si       3.08408796       1.63080819      -1.51398729       0.00000000
Si      -2.10610152       1.91633931       2.58301070       0.00000000
Si      -0.04364091      -2.22180939      -3.22092902       0.00000000
Si      -3.10114359       0.27145656      -2.40481140       0.00000000
Si       2.07826191       2.47347360       2.28994198       0.00000000
