10
Lattice="16.28999089631971 0.0 0.0 0.0 16.28999089631971 0.0 0.0 0.0 34.474598006748145" Properties=species:S:1:pos:R:3:initial_magmoms:R:1 pbc="T T T"
Si      -1.35713619       1.35666378       1.35981680       0.00000000
Si       1.35785295      -1.35933534       1.35940311       0.00000000
Si      -1.35848826      -1.35713619      -1.36621874       0.00000000
Si       1.36401057       1.35228177      -1.37755055       0.00000000
Si       0.09705582      -2.58681942      -2.76610194       0.00000000
Si       2.71316466       2.71725345      -0.00017237       0.00000000
Si       0.00042354       2.71393029       2.71666879       0.00000000
Si      -2.71393029       2.71722087      -0.00165478       0.00000000
Si      -2.71477737      -0.00060273       2.71680669       0.00000000
Si       2.71500543      -0.00074934       2.71697906       0.00000000
