10
Lattice="16.28999089631971 0.0 0.0 0.0 16.28999089631971 0.0 0.0 0.0 34.474598006748145" Properties=species:S:1:pos:R:3:initial_magmoms:R:1 pbc="T T T"
Si      -1.32805854       1.33692030       1.40271357       0.00000000
Si       1.40059791      -1.37534841       1.38795843       0.00000000
Si      -1.51848864      -1.18069920      -1.49467258       0.00000000
Si       1.00665684       1.79580960      -1.33336585       0.00000000
Si       0.42907860      -1.60914249      -2.81877368       0.00000000
Si       1.46251620       0.55532610      -3.28893851       0.00000000
Si      -2.69915526       2.60411940      -0.10216898       0.00000000
Si      -2.64114657      -2.78573661      -0.10446154       0.00000000
Si      -2.67734295      -0.01040931       2.76385420       0.00000000
Si       0.03665250       2.70058878       2.76157887       0.00000000
