10
Lattice="16.28999089631971 0.0 0.0 0.0 16.28999089631971 0.0 0.0 0.0 34.474598006748145" Properties=species:S:1:pos:R:3:initial_magmoms:R:1 pbc="T T T"
Si       1.35718506      -1.35549090      -1.35940311       0.00000000
Si      -1.35856971       1.36218609      -1.36005813       0.00000000
Si       1.37658645       1.34358291       1.36743569       0.00000000
Si      -1.34819298      -1.36065483       1.38184608       0.00000000
Si       0.03986163       2.71313208       2.66202652       0.00000000
Si      -2.69175960       0.04720842       2.71015309       0.00000000
Si       2.71021617      -2.71415835      -0.00051712       0.00000000
Si       2.71568961       2.71230129       0.00158583       0.00000000
Si      -2.71622718      -2.71238274       0.00396458       0.00000000
Si       2.71349046       0.00192222      -2.71542770       0.00000000
