10
Lattice="16.28999089631971 0.0 0.0 0.0 16.28999089631971 0.0 0.0 0.0 34.474598006748145" Properties=species:S:1:pos:R:3:initial_magmoms:R:1 pbc="T T T"
Si      -1.06020207       1.55033559      -1.42397407       0.00000000
Si       0.82458351       1.47716091       1.71618092       0.00000000
Si       1.83444948      -1.21254615      -1.07798681       0.00000000
Si      -2.27502882      -1.06909641       0.26486848       0.00000000
Si      -0.91559574      -3.00778560       0.85145410       0.00000000
Si       1.09107162      -2.22123924       2.16231694       0.00000000
Si       0.84092238      -0.17171289       3.33724638       0.00000000
Si      -2.28881016       0.04613328      -2.66750799       0.00000000
Si       0.53794467      -2.58385464      -2.50620125       0.00000000
Si       0.44281107       2.71205694      -2.71563455       0.00000000
