10
Lattice="16.28999089631971 0.0 0.0 0.0 16.28999089631971 0.0 0.0 0.0 34.474598006748145" Properties=species:S:1:pos:R:3:initial_magmoms:R:1 pbc="T T T"
Si      -1.86007365      -0.18210591       1.35361137       0.00000000
Si      -0.01633887       1.64887380      -1.62106545       0.00000000
Si       0.25014924      -2.04952635      -1.17492943       0.00000000
Si       1.87294275       0.02507031       1.54211858       0.00000000
Si       3.35937267       0.39395736      -0.35022764       0.00000000
Si      -0.84092238       0.17171289      -3.33724638       0.00000000
Si       2.31779007       2.14754328      -1.62916699       0.00000000
Si       1.06600131      -1.89988641       2.90079772       0.00000000
Si      -1.33406955      -1.68857253       3.08958073       0.00000000
Si      -2.45659716       1.92272499       2.16476464       0.00000000
