10
Lattice="16.28999089631971 0.0 0.0 0.0 16.28999089631971 0.0 0.0 0.0 34.474598006748145" Properties=species:S:1:pos:R:3:initial_magmoms:R:1 pbc="T T T"
Si       2.15139261       0.75188124      -0.53659742       0.00000000
Si      -1.15392074       2.06356833       0.04891948       0.00000000
Si       0.09355673      -0.61050033       2.29769877       0.00000000
Si      -1.62558140      -1.33478957      -1.11863238       0.00000000
Si      -3.35321735      -0.64503513       0.42110745       0.00000000
Si      -1.02653294       1.27540926       3.16290824       0.00000000
Si       3.24738381      -1.28224943      -0.94536295       0.00000000
Si      -2.92755965       1.49242464       1.72145554       0.00000000
Si       1.92471726       1.66586427      -2.72218473       0.00000000
Si       1.54587702      -2.69831537      -2.06320242       0.00000000
