10
Lattice="16.28999089631971 0.0 0.0 0.0 16.28999089631971 0.0 0.0 0.0 34.474598006748145" Properties=species:S:1:pos:R:3:initial_magmoms:R:1 pbc="T T T"
Si       0.17221788       2.17072395       0.83097617       0.00000000
Si       1.52155116       0.25301628      -1.80426357       0.00000000
Si      -2.39523273      -0.13468572      -0.34023000       0.00000000
Si       0.96040953      -1.94320152       1.25984041       0.00000000
Si      -0.97661808      -2.19962241       2.70229287       0.00000000
Si      -2.85146676      -2.43129879      -0.64336531       0.00000000
Si       1.61705943       2.12615451       2.72156419       0.00000000
Si      -1.84787244       2.59838532       2.10950183       0.00000000
Si      -3.39407037       0.60105213       1.76516935       0.00000000
Si       0.86811039       3.69237285      -0.94212234       0.00000000
