10
Lattice="16.28999089631971 0.0 0.0 0.0 16.28999089631971 0.0 0.0 0.0 34.474598006748145" Properties=species:S:1:pos:R:3:initial_magmoms:R:1 pbc="T T T"
Si      -1.09599120       2.03413067       0.40876554       0.00000000
Si       0.99075780      -0.68907352       2.01993678       0.00000000
Si       1.98935109       0.17571371      -1.27918067       0.00000000
Si      -1.70150679      -1.41606594      -1.11783947       0.00000000
Si       2.44227825      -2.17464237      -1.54180831       0.00000000
Si      -3.24738381       1.28224943       0.94536295       0.00000000
Si      -1.32266655       2.94811370      -1.77682177       0.00000000
Si      -0.53608761      -2.41687467       2.74535167       0.00000000
Si      -1.94559615      -0.13262015      -3.15135924       0.00000000
Si       1.11255813       1.03120424       3.59456492       0.00000000
