10
Lattice="16.28999089631971 0.0 0.0 0.0 16.28999089631971 0.0 0.0 0.0 34.474598006748145" Properties=species:S:1:pos:R:3:initial_magmoms:R:1 pbc="T T T"
Si       0.37142829      -1.11140154       1.96881092       0.00000000
Si      -0.62576406       2.28338952       0.48933272       0.00000000
Si      -1.98242784      -1.57190355      -0.30630697       0.00000000
Si       2.02914756      -0.80487261      -1.57480052       0.00000000
Si      -1.08667332       2.82993857      -1.76189426       0.00000000
Si       1.16898669      -3.21838272       1.28786828       0.00000000
Si      -1.94711112       0.86011805      -2.98943196       0.00000000
Si      -0.71579889      -3.14520804      -1.85228671       0.00000000
Si      -2.59621875       1.93273261       1.90706688       0.00000000
Si       0.78721425      -1.98348669      -3.14394720       0.00000000
