10
Lattice="16.28999089631971 0.0 0.0 0.0 16.28999089631971 0.0 0.0 0.0 34.474598006748145" Properties=species:S:1:pos:R:3:initial_magmoms:R:1 pbc="T T T"
Si       0.01633887      -1.64887380       1.62106545       0.00000000
Si      -0.79755840       2.10698118       0.68094264       0.00000000
Si       2.33412894       0.49866948      -0.00810154       0.00000000
Si      -0.82458351      -1.47716091      -1.71618092       0.00000000
Si       2.60405424       0.71174268      -2.34110231       0.00000000
Si      -1.16898669       3.21838272      -1.28786828       0.00000000
Si      -1.88478558       0.07317468      -3.14015499       0.00000000
Si       0.26648811      -3.69840015       0.44613602       0.00000000
Si      -2.71479366       1.76766048       1.93995566       0.00000000
Si       3.37571154      -1.25491644       1.27083782       0.00000000
