10
Lattice="16.28999089631971 0.0 0.0 0.0 16.28999089631971 0.0 0.0 0.0 34.474598006748145" Properties=species:S:1:pos:R:3:initial_magmoms:R:1 pbc="T T T"
Si      -1.66216644       1.61150454       0.05646942       0.00000000
Si       0.37668996       0.16808022       2.30983383       0.00000000
Si      -0.37818864      -2.03452326      -1.11146166       0.00000000
Si       1.72537164       1.03480596      -1.23908669       0.00000000
Si       2.07474327      -2.41214175      -0.16930485       0.00000000
Si       1.10824128      -1.66563621      -3.00380788       0.00000000
Si       0.48371526       2.19289464      -2.91276041       0.00000000
Si      -0.86697009       3.30079383       1.44693416       0.00000000
Si      -3.42032985       0.61784712       1.35302530       0.00000000
Si      -0.60864327      -1.72284669       3.29018852       0.00000000
