10
Lattice="16.28999089631971 0.0 0.0 0.0 16.28999089631971 0.0 0.0 0.0 34.474598006748145" Properties=species:S:1:pos:R:3:initial_magmoms:R:1 pbc="T T T"
Si       0.45585936      -1.24048350      -1.95557266       0.00000000
Si       1.78155585       1.05306705       1.22232311       0.00000000
Si      -1.00665684      -1.79580960       1.33336585       0.00000000
Si      -2.00166633       1.63369152      -0.31461536       0.00000000
Si       0.38182131       2.28500614       2.71553599       0.00000000
Si      -2.33471538      -0.45888930       2.73607942       0.00000000
Si      -0.57757824      -3.40495209      -1.48540783       0.00000000
Si       2.78777286      -1.54711017      -2.08278400       0.00000000
Si      -0.52251804      -0.02308293      -3.78900176       0.00000000
Si      -2.52514548      -2.97650880      -0.16130673       0.00000000
