10
Lattice="16.28999089631971 0.0 0.0 0.0 16.28999089631971 0.0 0.0 0.0 34.474598006748145" Properties=species:S:1:pos:R:3:initial_magmoms:R:1 pbc="T T T"
Si      -1.35149985       1.35654649       1.36033392       0.00000000
Si       1.36233270      -1.35789930       1.35919626       0.00000000
Si      -1.35957969      -1.33737903      -1.38340778       0.00000000
Si       1.36120869       1.35027484      -1.37715064       0.00000000
Si      -2.70958086       2.71312882      -0.00168926       0.00000000
Si      -2.71096551      -0.00177724       2.71656537       0.00000000
Si      -2.71140534      -2.71760598      -0.00399906       0.00000000
Si       0.00423540       2.71356865       2.71711696       0.00000000
Si       0.00376299      -2.71674261       2.71673774       0.00000000
Si       2.71886616      -0.00155895       2.71684116       0.00000000
