10
Lattice="16.28999089631971 0.0 0.0 0.0 16.28999089631971 0.0 0.0 0.0 34.474598006748145" Properties=species:S:1:pos:R:3:initial_magmoms:R:1 pbc="T T T"
Si       0.39089484       2.10496448      -1.13817949       0.00000000
Si       0.49620969      -0.10420224       2.37681801       0.00000000
Si       1.49216400      -1.37929452      -1.33868386       0.00000000
Si      -2.32217208      -0.73427568       0.24294263       0.00000000
Si       2.94257673      -2.21945127       0.38173744       0.00000000
Si      -1.90454535       2.47601810      -2.07540643       0.00000000
Si       2.52877815       1.84686572      -2.08819652       0.00000000
Si      -2.26287648      -2.07585492       2.18179510       0.00000000
Si      -0.55900764       1.75033118       3.37661639       0.00000000
Si       0.27016965      -3.00026355      -2.44307823       0.00000000
