10
Lattice="16.28999089631971 0.0 0.0 0.0 16.28999089631971 0.0 0.0 0.0 34.474598006748145" Properties=species:S:1:pos:R:3:initial_magmoms:R:1 pbc="T T T"
Si      -0.27878706       2.10601681      -1.01603592       0.00000000
Si       1.91280438      -0.44978384      -1.37574408       0.00000000
Si      -2.01921066      -1.14511599      -0.65198396       0.00000000
Si       0.35447040       0.79035007       2.31955567       0.00000000
Si      -1.90337247       1.82270113       2.43001235       0.00000000
Si      -1.30792410      -1.85630481      -2.80685439       0.00000000
Si       2.05470657      -2.75722326      -1.50047324       0.00000000
Si      -1.42487001       1.77308179      -3.12481378       0.00000000
Si      -1.37891592       3.68072224       0.34915892       0.00000000
Si       1.91669769       3.13271035      -1.48351173       0.00000000
