10
Lattice="16.28999089631971 0.0 0.0 0.0 16.28999089631971 0.0 0.0 0.0 34.474598006748145" Properties=species:S:1:pos:R:3:initial_magmoms:R:1 pbc="T T T"
Si      -0.35447040      -0.79035007      -2.31955567       0.00000000
Si      -2.25784287       1.03235106       0.11045667       0.00000000
Si       1.08892134       2.22126042       0.50625975       0.00000000
Si       0.48003372      -1.47576227       2.01707538       0.00000000
Si      -0.63325746       1.31566674      -3.33559159       0.00000000
Si       2.74025493       1.53708042       2.19110325       0.00000000
Si       1.47587400       0.07464730       3.53596638       0.00000000
Si      -1.73338632       2.89037217      -1.97039675       0.00000000
Si       3.19694508       2.45627625      -0.78274619       0.00000000
Si       1.55833398      -1.24013392      -3.69529975       0.00000000
