10
Lattice="16.28999089631971 0.0 0.0 0.0 16.28999089631971 0.0 0.0 0.0 34.474598006748145" Properties=species:S:1:pos:R:3:initial_magmoms:R:1 pbc="T T T"
Si       0.92698245       1.77943815      -1.35905836       0.00000000
Si      -1.29792204      -0.44066079       2.01728223       0.00000000
Si      -1.80916740      -0.95557140      -1.37519248       0.00000000
Si       1.70209323      -1.84267593       0.08511783       0.00000000
Si      -2.09140794       1.86585660       1.91282414       0.00000000
Si       2.21372955       0.31881159      -2.76472641       0.00000000
Si      -0.49502052      -2.42633034      -2.73314766       0.00000000
Si       3.42803502      -1.01043612      -1.30307158       0.00000000
Si       0.65749698      -3.69813951      -0.98545693       0.00000000
Si       2.64085335       2.92118796      -0.09814924       0.00000000
