10
Lattice="16.28999089631971 0.0 0.0 0.0 16.28999089631971 0.0 0.0 0.0 34.474598006748145" Properties=species:S:1:pos:R:3:initial_magmoms:R:1 pbc="T T T"
Si       1.72594179       0.83223981      -1.38818941       0.00000000
Si      -1.04459625      -1.85546358      -1.07057476       0.00000000
Si       0.90305244      -1.36208835       1.84811528       0.00000000
Si      -1.70209323       1.84267593      -0.08511783       0.00000000
Si       0.59805477       0.51741927       3.09716514       0.00000000
Si       0.51163632       2.16148752      -2.84984424       0.00000000
Si      -2.19711375      -0.58365441      -2.81826549       0.00000000
Si       1.79422947       2.37073257       2.15428436       0.00000000
Si       2.48046201       2.83209795      -0.07970532       0.00000000
Si      -3.00001527       1.40201514       1.93216440       0.00000000
