10
Lattice="16.28999089631971 0.0 0.0 0.0 16.28999089631971 0.0 0.0 0.0 34.474598006748145" Properties=species:S:1:pos:R:3:initial_magmoms:R:1 pbc="T T T"
Si       1.00960533      -1.83150099      -0.97645906       0.00000000
Si       0.70784937       0.20847942       2.20044587       0.00000000
Si      -2.34082413      -0.21277998      -0.19998725       0.00000000
Si       0.59592078       1.90037511      -1.27449213       0.00000000
Si       0.70923402      -1.17633348      -3.17504330       0.00000000
Si       0.26713971       2.49857649       2.38636748       0.00000000
Si      -2.86601373       2.06648424      -0.21288076       0.00000000
Si      -0.05142753      -3.55988628       0.16606423       0.00000000
Si       1.97247465       0.86667687      -2.93589288       0.00000000
Si       3.07011114       0.11595222       2.03886334       0.00000000
