10
Lattice="16.28999089631971 0.0 0.0 0.0 16.28999089631971 0.0 0.0 0.0 34.474598006748145" Properties=species:S:1:pos:R:3:initial_magmoms:R:1 pbc="T T T"
Si       0.22002903      -2.31620994      -0.23149705       0.00000000
Si       1.29396357       0.87325803      -1.76903051       0.00000000
Si      -2.36226177       0.09252720       0.16158253       0.00000000
Si       0.30276594       1.72700064       1.59527844       0.00000000
Si       0.21375738      -2.46808161      -2.59007800       0.00000000
Si      -3.07011114      -0.11595222      -2.03886334       0.00000000
Si      -2.80297143       2.38262427       0.34750414       0.00000000
Si       0.89497260       3.14874297      -1.97501635       0.00000000
Si       0.99654075       3.71009637       0.33640332       0.00000000
Si       2.25010512      -3.09505113       0.69476696       0.00000000
