10
Lattice="16.28999089631971 0.0 0.0 0.0 16.28999089631971 0.0 0.0 0.0 34.474598006748145" Properties=species:S:1:pos:R:3:initial_magmoms:R:1 pbc="T T T"
Si      -0.70784937      -0.20847942      -2.20044587       0.00000000
Si      -0.44070966       2.29009707       0.18592161       0.00000000
Si       2.36226177      -0.09252720      -0.16158253       0.00000000
Si      -0.71332281      -1.86072525       1.43959107       0.00000000
Si       0.39297996       2.34176895       2.37778330       0.00000000
Si       2.66502771       1.63447344       1.43369591       0.00000000
Si       0.38680605      -3.43543068       0.07439622       0.00000000
Si       2.58229080      -2.40873714      -0.39307959       0.00000000
Si       0.30175596      -2.03998041      -3.17690493       0.00000000
Si      -3.08408796      -1.63080819       1.51398729       0.00000000
