10
Lattice="16.28999089631971 0.0 0.0 0.0 16.28999089631971 0.0 0.0 0.0 34.474598006748145" Properties=species:S:1:pos:R:3:initial_magmoms:R:1 pbc="T T T"
Si       1.34570061       1.35278676      -1.38932708       0.00000000
Si      -1.35899325      -1.37484342      -1.38553487       0.00000000
Si       1.85894964      -0.89924058       1.27521609       0.00000000
Si      -1.48789602       1.32913368       1.53446521       0.00000000
Si       2.69044011       2.71294704       0.00682597       0.00000000
Si      -2.72140740       2.70734817      -0.00358536       0.00000000
Si       2.72600118      -2.71352304      -0.00992869       0.00000000
Si      -2.69809641      -2.74356180      -0.01968501       0.00000000
Si      -0.00226431       2.70236017      -2.74783384       0.00000000
Si       2.71166598      -0.01298313      -2.74407611       0.00000000
