10
Lattice="16.28999089631971 0.0 0.0 0.0 16.28999089631971 0.0 0.0 0.0 34.474598006748145" Properties=species:S:1:pos:R:3:initial_magmoms:R:1 pbc="T T T"
Si      -1.22199435      -1.62096903      -1.10439436       0.00000000
Si       1.45041273      -0.84015675       1.72042130       0.00000000
Si       0.55900764       1.28179235      -1.96753536       0.00000000
Si      -1.49216400       1.37929452       1.33868386       0.00000000
Si       1.03661415       3.22616024      -0.74951265       0.00000000
Si      -0.23065011      -2.22936795       2.77658568       0.00000000
Si      -1.10126916       3.48425900       0.20050437       0.00000000
Si      -2.46365073      -0.46288035      -2.77806808       0.00000000
Si       2.61311148       1.07279980       2.60986643       0.00000000
Si       0.14022432      -3.17606130      -2.27387681       0.00000000
