10
Lattice="16.28999089631971 0.0 0.0 0.0 16.28999089631971 0.0 0.0 0.0 34.474598006748145" Properties=species:S:1:pos:R:3:initial_magmoms:R:1 pbc="T T T"
Si       2.33191350      -0.30662667      -0.12721134       0.00000000
Si      -0.45585936       1.24048350       1.95557266       0.00000000
Si      -0.97837740       1.21740057      -1.83342910       0.00000000
Si      -1.03343760      -2.16446859       0.47016483       0.00000000
Si      -2.47827915      -2.11989915      -1.42042318       0.00000000
Si      -1.46251620      -0.55532610       3.28893851       0.00000000
Si       2.63062323      -1.75752810       1.89169120       0.00000000
Si      -1.78238664      -0.59825025      -3.19352170       0.00000000
Si      -3.05831718       2.25166896      -0.80177617       0.00000000
Si      -2.98100484      -1.73602530       1.79426593       0.00000000
