10
Lattice="16.28999089631971 0.0 0.0 0.0 16.28999089631971 0.0 0.0 0.0 34.474598006748145" Properties=species:S:1:pos:R:3:initial_magmoms:R:1 pbc="T T T"
Si      -1.35760860      -1.35686740       1.35664514       0.00000000
Si       1.35687555      -1.35831722      -1.35654172       0.00000000
Si       1.35757602       1.35817875       1.35664514       0.00000000
Si      -1.35606105       1.36169739      -1.35888599       0.00000000
Si       0.01505196      -2.71098899      -2.71314204       0.00000000
Si      -2.71414206      -2.71320776      -0.00099976       0.00000000
Si       2.71342603      -2.71430561      -0.00082739       0.00000000
Si       0.00035838      -2.71461596       2.71411767       0.00000000
Si       2.71521710       0.00000000       2.71432452       0.00000000
Si       2.71469851       2.71494027      -0.00048264       0.00000000
