10
Lattice="16.28999089631971 0.0 0.0 0.0 16.28999089631971 0.0 0.0 0.0 34.474598006748145" Properties=species:S:1:pos:R:3:initial_magmoms:R:1 pbc="T T T"
Si      -1.40874291      -1.69245476      -0.86427866       0.00000000
Si      -1.37658645       1.89609084       0.48409258       0.00000000
Si       0.74780874      -0.53170886       2.22192356       0.00000000
Si       1.79848998       0.52176870      -1.65212708       0.00000000
Si      -2.59815726       0.52975080       2.01507585       0.00000000
Si      -3.07576377      -1.41461708       0.79705315       0.00000000
Si       2.10101319       2.78614386      -0.22560190       0.00000000
Si      -2.10821922       1.47056346      -2.41842888       0.00000000
Si       0.29854683       3.30556680       1.29510795       0.00000000
Si       1.67109045      -2.69890181       1.86797266       0.00000000
