10
Lattice="16.28999089631971 0.0 0.0 0.0 16.28999089631971 0.0 0.0 0.0 34.474598006748145" Properties=species:S:1:pos:R:3:initial_magmoms:R:1 pbc="T T T"
Si       1.35684460       1.35772263      -1.35685199       0.00000000
Si       1.35554140      -1.35654975       1.35981680       0.00000000
Si      -1.35823328      -1.35749457      -1.35650724       0.00000000
Si      -1.35776077       1.35645201       1.36495352       0.00000000
Si       2.69554051       0.02388114       2.70387871       0.00000000
Si       2.71352467      -2.71458515      -0.00041370       0.00000000
Si       2.71415998       0.00029322      -2.71415214       0.00000000
Si      -0.00080310      -2.71461284      -2.71411767       0.00000000
Si      -2.71587436       0.00068418      -2.71418662       0.00000000
Si      -0.00123152       2.71562445      -2.71460031       0.00000000
