10
Lattice="16.28999089631971 0.0 0.0 0.0 16.28999089631971 0.0 0.0 0.0 34.474598006748145" Properties=species:S:1:pos:R:3:initial_magmoms:R:1 pbc="T T T"
Si      -0.04183272      -1.78165522       1.61279155       0.00000000
Si      -1.61833005       0.37170522      -1.74658753       0.00000000
Si       1.72763595      -0.68975444      -1.53973983       0.00000000
Si       0.42565770       2.13745977       1.30034809       0.00000000
Si       3.35321735       0.64503513      -0.42110745       0.00000000
Si       2.19929661       2.70860346      -0.37218797       0.00000000
Si      -1.37081979       1.48292757       3.00094648       0.00000000
Si      -1.44736650      -0.91364583       3.26957270       0.00000000
Si      -0.39675924       1.73804526      -3.27757081       0.00000000
Si       2.22348726      -1.91570514       2.52033584       0.00000000
