10
Lattice="16.28999089631971 0.0 0.0 0.0 16.28999089631971 0.0 0.0 0.0 34.474598006748145" Properties=species:S:1:pos:R:3:initial_magmoms:R:1 pbc="T T T"
Si       1.22328682       1.95023994      -0.64374453       0.00000000
Si      -0.11147247      -0.66281357       2.30242179       0.00000000
Si       1.52142151      -1.62032348      -0.91474949       0.00000000
Si      -2.26531998       0.13404992      -0.90754430       0.00000000
Si       0.31038966      -2.52867017      -2.69150232       0.00000000
Si       3.28605857       1.76469684       0.56097097       0.00000000
Si       2.17170854      -1.01076797       2.92534365       0.00000000
Si      -1.18576539      -2.80170686       2.28821825       0.00000000
Si       0.10319715       3.83614953       0.22146494       0.00000000
Si      -2.22348726       1.91570514      -2.52033584       0.00000000
