10
Lattice="16.28999089631971 0.0 0.0 0.0 16.28999089631971 0.0 0.0 0.0 34.474598006748145" Properties=species:S:1:pos:R:3:initial_magmoms:R:1 pbc="T T T"
Si       1.30917843      -1.34915409      -1.47079060       0.00000000
Si      -1.39309148       1.34030862      -1.43228245       0.00000000
Si       1.77357375       1.12806621       1.29479768       0.00000000
Si      -0.99657333      -1.75207095       1.44755470       0.00000000
Si       0.85263489      -3.35065752       1.22888221       0.00000000
Si       2.73611727      -2.51639775      -0.07874003       0.00000000
Si       2.68135029      -0.01446552      -2.81664518       0.00000000
Si       3.59578944      -0.62305992       1.35268056       0.00000000
Si      -0.02956635       2.70039330      -2.81123267       0.00000000
Si      -2.84639147       2.69553888      -0.02802786       0.00000000
