10
Lattice="16.28999089631971 0.0 0.0 0.0 16.28999089631971 0.0 0.0 0.0 34.474598006748145" Properties=species:S:1:pos:R:3:initial_magmoms:R:1 pbc="T T T"
Si       0.30499767      -1.87950762      -1.24904986       0.00000000
Si       1.19617470       1.85331330      -0.94288078       0.00000000
Si       1.03663044      -1.45398024       1.65347159       0.00000000
Si      -0.59805477      -0.51741927      -3.09716514       0.00000000
Si      -0.23912091       3.59344368      -0.09780449       0.00000000
Si       2.71176372      -0.04450428       2.46448696       0.00000000
Si      -3.59807004       0.88459587      -1.16500074       0.00000000
Si      -2.95555986      -2.09904795       1.62113440       0.00000000
Si      -2.81269656       1.91570400       2.05055024       0.00000000
Si       2.33259768       2.31329403       2.42884021       0.00000000
