10
Lattice="16.28999089631971 0.0 0.0 0.0 16.28999089631971 0.0 0.0 0.0 34.474598006748145" Properties=species:S:1:pos:R:3:initial_magmoms:R:1 pbc="T T T"
Si       0.16439868       0.34718877       2.32827775       0.00000000
Si      -2.22720138       0.22465539      -0.87744796       0.00000000
Si       0.88066998      -2.33961867      -0.19336813       0.00000000
Si       0.95996970       2.41748487      -0.36915420       0.00000000
Si      -0.23459229       2.62267371       2.12229191       0.00000000
Si      -0.91580751      -2.99415087       1.50723027       0.00000000
Si       2.65430889      -1.76847498      -1.86590419       0.00000000
Si       2.53658106       0.53929674       2.77641330       0.00000000
Si       2.48746671       1.92692781      -2.14735496       0.00000000
Si      -3.60375525       1.25835363       0.78395280       0.00000000
