10
Lattice="16.28999089631971 0.0 0.0 0.0 16.28999089631971 0.0 0.0 0.0 34.474598006748145" Properties=species:S:1:pos:R:3:initial_magmoms:R:1 pbc="T T T"
Si      -0.30276594      -1.72700064      -1.59527844       0.00000000
Si       1.78916328       0.02296890       1.61020595       0.00000000
Si       0.69377481       1.98309573      -1.25887512       0.00000000
Si      -2.27204775       0.70729551       0.94408739       0.00000000
Si      -0.99611721       2.47415778       1.97608506       0.00000000
Si      -3.10573737       0.65562363      -1.24777430       0.00000000
Si      -2.66502771      -1.63447344      -1.43369591       0.00000000
Si      -0.92447379       3.43435554      -0.33709281       0.00000000
Si       2.83840218      -1.98938367       0.90437263       0.00000000
Si       0.99119763      -0.85374261      -3.36430895       0.00000000
