10
Lattice="16.28999089631971 0.0 0.0 0.0 16.28999089631971 0.0 0.0 0.0 34.474598006748145" Properties=species:S:1:pos:R:3:initial_magmoms:R:1 pbc="T T T"
Si      -1.35444834       1.35702216      -1.35474903       0.00000000
Si       1.35695700      -1.35580041      -1.35619697       0.00000000
Si      -1.37166687      -1.34206794       1.35661066       0.00000000
Si       1.35278676       1.36666584       1.35778280       0.00000000
Si       2.61366534      -0.00459378       2.79096159       0.00000000
Si      -2.65841397       0.11855862       2.76227871       0.00000000
Si       0.00017919      -2.71479366      -2.71218709       0.00000000
Si      -2.71482624      -0.00065160      -2.71246289       0.00000000
Si       2.71523484      -0.00017919      -2.71239394       0.00000000
Si       0.00149868       2.71464705      -2.71322133       0.00000000
