10
Lattice="16.28999089631971 0.0 0.0 0.0 16.28999089631971 0.0 0.0 0.0 34.474598006748145" Properties=species:S:1:pos:R:3:initial_magmoms:R:1 pbc="T T T"
Si       1.36043741       1.34851878      -1.35523168       0.00000000
Si       1.26087858      -1.37125962       1.43317879       0.00000000
Si      -1.35278676      -1.36666584      -1.35778280       0.00000000
Si      -1.18143225       1.48118454       1.41397643       0.00000000
Si       2.36353469       0.47004795       2.55874057       0.00000000
Si      -0.75562794      -2.03812335       2.76896678       0.00000000
Si      -2.29732983      -0.10635741       2.66540503       0.00000000
Si       0.71219880       2.28227787       2.71915096       0.00000000
Si      -2.69537598       2.71959921       0.02320142       0.00000000
Si      -2.70723510      -0.00964368      -2.71253184       0.00000000
