10
Lattice="16.28999089631971 0.0 0.0 0.0 16.28999089631971 0.0 0.0 0.0 34.474598006748145" Properties=species:S:1:pos:R:3:initial_magmoms:R:1 pbc="T T T"
Si       2.00042829      -1.20317940       0.21843118       0.00000000
Si      -1.75599684      -0.60773103       1.43035187       0.00000000
Si       0.31210011       2.28418380       0.52491052       0.00000000
Si      -0.57129030       0.07697025      -2.30821352       0.00000000
Si       2.61693963      -0.65796939      -1.99252945       0.00000000
Si      -2.42634663       1.65912021       1.68894597       0.00000000
Si      -3.01141827       0.13809033      -1.83467018       0.00000000
Si      -3.14486595      -1.60076943      -0.15985880       0.00000000
Si       0.59781042       2.17546434       2.87294223       0.00000000
Si       0.86400531      -1.66316013      -3.15328982       0.00000000
