10
Lattice="16.28999089631971 0.0 0.0 0.0 16.28999089631971 0.0 0.0 0.0 34.474598006748145" Properties=species:S:1:pos:R:3:initial_magmoms:R:1 pbc="T T T"
Si       1.16035299      -1.36401057       1.44007371       0.00000000
Si      -1.84959103      -1.07891928      -0.89602978       0.00000000
Si      -0.52100307       2.02645971       1.01524300       0.00000000
Si       1.50258960       0.16109181      -1.78285483       0.00000000
Si       0.14315652       2.09978100      -2.36944045       0.00000000
Si      -1.29449625       3.15454221      -0.83235516       0.00000000
Si       0.10049301      -3.41210340       1.07560806       0.00000000
Si       3.39685596      -1.11721707       0.69256059       0.00000000
Si       3.50925696       0.94763817      -0.47199199       0.00000000
Si      -3.66172226       0.32752674      -0.49426259       0.00000000
