10
Lattice="16.28999089631971 0.0 0.0 0.0 16.28999089631971 0.0 0.0 0.0 34.474598006748145" Properties=species:S:1:pos:R:3:initial_magmoms:R:1 pbc="T T T"
Si       0.87980661      -1.41320637      -1.64216392       0.00000000
Si       0.45623403       2.29661307       0.30313531       0.00000000
Si       0.13092273      -1.01718018       2.14969923       0.00000000
Si      -2.35200070      -0.31135077      -0.40917923       0.00000000
Si      -0.52253433      -3.31685577      -1.40435801       0.00000000
Si       0.31633551      -0.19264554      -3.64127803       0.00000000
Si       2.85146676       2.43129879       0.64336531       0.00000000
Si      -0.11978037       3.41884746      -1.70552827       0.00000000
Si       1.87484868       0.23167638       3.34565818       0.00000000
Si      -2.73847022      -2.41219062      -1.40297902       0.00000000
