10
Lattice="16.28999089631971 0.0 0.0 0.0 16.28999089631971 0.0 0.0 0.0 34.474598006748145" Properties=species:S:1:pos:R:3:initial_magmoms:R:1 pbc="T T T"
Si      -1.43765277       1.05476121       1.53708529       0.00000000
Si       1.35943308      -1.93868919       0.58658561       0.00000000
Si      -1.75241793       0.19209168      -1.72979840       0.00000000
Si       2.27502882       1.06909641      -0.26486848       0.00000000
Si      -0.01378134       1.11522969      -2.93237647       0.00000000
Si      -0.14315652      -2.09978100       2.36944045       0.00000000
Si       1.21482675       2.61943200      -1.68884255       0.00000000
Si      -0.66415959      -0.07332129       3.38468345       0.00000000
Si       1.76489118      -3.21668856      -1.53253464       0.00000000
Si      -1.99274756      -3.17870028       1.47341067       0.00000000
