10
Lattice="16.28999089631971 0.0 0.0 0.0 16.28999089631971 0.0 0.0 0.0 34.474598006748145" Properties=species:S:1:pos:R:3:initial_magmoms:R:1 pbc="T T T"
Si      -0.34178212       1.07660610      -2.02590088       0.00000000
Si      -0.28958244       1.84130757       1.43862578       0.00000000
Si       2.15801775      -0.96111000       0.16406470       0.00000000
Si      -2.08115243      -0.77111973       0.99059365       0.00000000
Si      -2.67418988       1.50384393       1.39742861       0.00000000
Si      -1.33639087      -0.62592696      -3.22765157       0.00000000
Si       1.03198779       1.06720677       3.30442654       0.00000000
Si       1.76994108       1.73801268      -2.78837599       0.00000000
Si      -1.38620081      -1.68855624       3.03093940       0.00000000
Si      -1.67613416       2.94073596      -1.60834432       0.00000000
