10
Lattice="16.28999089631971 0.0 0.0 0.0 16.28999089631971 0.0 0.0 0.0 34.474598006748145" Properties=species:S:1:pos:R:3:initial_magmoms:R:1 pbc="T T T"
Si      -1.35800870      -1.35650088       1.35602460       0.00000000
Si       1.35763434      -1.35690813      -1.35681751       0.00000000
Si      -1.35709646       1.35777150      -1.35716226       0.00000000
Si       1.35772231       1.35694071       1.35754148       0.00000000
Si      -2.70910130      -0.00534312       2.71118733       0.00000000
Si       2.71221789      -0.00024435       2.71484164       0.00000000
Si       0.00047514      -2.71394658      -2.71363502       0.00000000
Si      -2.71362992      -2.71445157      -0.00031027       0.00000000
Si      -2.71511231       0.00001629      -2.71387635       0.00000000
Si      -0.00190443      -2.71391400       2.71546218       0.00000000
