10
Lattice="16.28999089631971 0.0 0.0 0.0 16.28999089631971 0.0 0.0 0.0 34.474598006748145" Properties=species:S:1:pos:R:3:initial_magmoms:R:1 pbc="T T T"
Si       1.35643572       1.35778779       1.35740358       0.00000000
Si       1.35684297      -1.35384561      -1.36116131       0.00000000
Si      -1.35875379      -1.35707103       1.35754148       0.00000000
Si      -1.35731701       1.35910728      -1.36223003       0.00000000
Si       2.71363707      -2.71440270       0.00031027       0.00000000
Si       2.70612738      -0.00651600      -2.72230194       0.00000000
Si       2.71394658       0.00008145       2.71484164       0.00000000
Si      -0.00081450      -2.71448415       2.71477269       0.00000000
Si      -2.71591299      -2.71410948       0.00072397       0.00000000
Si      -2.71638813      -0.00016290       2.71435899       0.00000000
