10
Lattice="16.28999089631971 0.0 0.0 0.0 16.28999089631971 0.0 0.0 0.0 34.28971787722196" Properties=species:S:1:pos:R:3:initial_magmoms:R:1 pbc="T T T"
Si      -0.93654468       2.19400955       0.18074120       0.00000000
Si      -1.88388963      -1.15145865       0.96450172       0.00000000
Si       1.62456912      -1.23147513      -1.43111647       0.00000000
Si       2.14402464       0.27659998       1.24204286       0.00000000
Si      -0.34573896      -0.00513135      -2.51408923       0.00000000
Si      -0.81537966       1.69861436       2.46498633       0.00000000
Si      -1.18886049      -0.62198478       3.11460539       0.00000000
Si      -2.71831067       0.10623444      -2.25262999       0.00000000
Si      -3.16703664       1.70511407      -0.51938665       0.00000000
Si       1.61648928      -3.34060659      -0.31049357       0.00000000
