10
Lattice="16.28999089631971 0.0 0.0 0.0 16.28999089631971 0.0 0.0 0.0 34.28971787722196" Properties=species:S:1:pos:R:3:initial_magmoms:R:1 pbc="T T T"
Si       0.34138953       0.93078521       2.06640242       0.00000000
Si      -0.96938599       1.83474337      -1.05012320       0.00000000
Si      -1.55033626      -1.75839147       0.20563555       0.00000000
Si       2.05037995       0.10275732      -1.16550816       0.00000000
Si      -0.68141137       0.89123977      -3.20783919       0.00000000
Si       1.61193460       2.76876962       1.46098283       0.00000000
Si       0.71540956       3.40678376      -0.64787029       0.00000000
Si       1.35535081      -0.42671655      -3.31561183       0.00000000
Si      -1.83712171       0.98477678       3.02761233       0.00000000
Si      -0.11172008      -3.67223841       0.16921985       0.00000000
