10
Lattice="16.28999089631971 0.0 0.0 0.0 16.28999089631971 0.0 0.0 0.0 34.28971787722196" Properties=species:S:1:pos:R:3:initial_magmoms:R:1 pbc="T T T"
Si       0.62406990      -0.97239897       1.98578725       0.00000000
Si       1.55004237      -0.92437605      -1.43512836       0.00000000
Si       0.11484450       2.31234921      -0.22329477       0.00000000
Si      -1.95606152      -1.20646998      -0.48012490       0.00000000
Si       0.27458424      -0.65135565      -3.34424376       0.00000000
Si       1.30062618      -3.12293961      -0.69824192       0.00000000
Si       0.80987364       2.84182308       1.92680890       0.00000000
Si      -0.93604295      -3.16736244      -1.31569721       0.00000000
Si      -3.07068848       0.31408749      -1.89663394       0.00000000
Si      -1.35222638      -0.93317265       3.26153692       0.00000000
