10
Lattice="16.28999089631971 0.0 0.0 0.0 16.28999089631971 0.0 0.0 0.0 34.28971787722196" Properties=species:S:1:pos:R:3:initial_magmoms:R:1 pbc="T T T"
Si       0.82038069       0.65764359      -2.09169800       0.00000000
Si       1.99135476       0.65036196       1.15837727       0.00000000
Si      -1.87554915       1.54025208      -0.11863224       0.00000000
Si      -0.83025243      -2.02490564       1.14417103       0.00000000
Si       0.54566613       2.02847967       2.57690254       0.00000000
Si      -2.09209212      -1.48587606      -2.29006413       0.00000000
Si      -2.18590623      -0.69279741       2.60210893       0.00000000
Si       0.00369783      -1.19374749      -3.31350991       0.00000000
Si      -0.91492785       3.32348580       1.14788804       0.00000000
Si      -2.85079887       0.96449832      -2.32253651       0.00000000
