10
Lattice="16.28999089631971 0.0 0.0 0.0 16.28999089631971 0.0 0.0 0.0 34.28971787722196" Properties=species:S:1:pos:R:3:initial_magmoms:R:1 pbc="T T T"
Si       1.35767376       1.35397593       1.35629626       0.00000000
Si      -1.35746199       1.35682668      -1.35722208       0.00000000
Si       1.35754344      -1.35803866      -1.35735924       0.00000000
Si      -1.35860229      -1.35963508       1.35657058       0.00000000
Si       2.71384884       0.00327429       2.71252394       0.00000000
Si      -2.71322982      -0.00061902      -2.71451274       0.00000000
Si      -2.71437012       2.71433754       0.00034290       0.00000000
Si       2.71363707      -0.00027693      -2.71509567       0.00000000
Si      -0.00043983       2.71427238      -2.71468419       0.00000000
Si       2.71461447       2.71435383       0.00006858       0.00000000
