10
Lattice="16.28999089631971 0.0 0.0 0.0 16.28999089631971 0.0 0.0 0.0 34.28971787722196" Properties=species:S:1:pos:R:3:initial_magmoms:R:1 pbc="T T T"
Si       1.34656398       1.34277655      -1.37690439       0.00000000
Si       1.40877549      -1.36730042       1.31387985       0.00000000
Si      -1.36778985      -1.37831694      -1.36949781       0.00000000
Si      -1.29384954       1.41596752       1.49537543       0.00000000
Si      -0.42189471      -2.36281467       2.36071124       0.00000000
Si      -2.04815799      -0.55839025       2.65903195       0.00000000
Si       2.69014689       2.69497687       0.02095103       0.00000000
Si      -0.00961110       2.69347819      -2.73313207       0.00000000
Si      -2.73673629       2.69523751       0.00726942       0.00000000
Si       2.70360243      -0.01877748      -2.73296062       0.00000000
