10
Lattice="16.28999089631971 0.0 0.0 0.0 16.28999089631971 0.0 0.0 0.0 34.28971787722196" Properties=species:S:1:pos:R:3:initial_magmoms:R:1 pbc="T T T"
Si      -1.05873597      -0.84909996      -2.00173198       0.00000000
Si      -0.48752712       2.22322662       1.29310027       0.00000000
Si       1.59549147       1.88649603      -1.96181873       0.00000000
Si      -1.81304442      -2.82345773      -0.83807546       0.00000000
Si      -2.11859595       2.66243760      -0.81702156       0.00000000
Si      -0.39317544      -3.31392520       1.22013171       0.00000000
Si       2.00024910      -1.00804149       2.78933295       0.00000000
Si       0.00519651      -2.21861981       3.22107503       0.00000000
Si       0.23511357      -2.26506748      -3.49710741       0.00000000
Si       1.44195822       3.29579280       2.34486938       0.00000000
