10
Lattice="16.28999089631971 0.0 0.0 0.0 16.28999089631971 0.0 0.0 0.0 34.28971787722196" Properties=species:S:1:pos:R:3:initial_magmoms:R:1 pbc="T T T"
Si      -2.09715831       0.78915602       0.53423410       0.00000000
Si      -0.39837195      -1.09530539      -2.00094332       0.00000000
Si       0.90880281      -1.44277665       1.60832583       0.00000000
Si       1.99505259       1.21057832      -0.43174208       0.00000000
Si       2.61319293      -2.10678963       0.08164386       0.00000000
Si       1.66343706      -2.23828251      -2.10775585       0.00000000
Si      -3.57400971      -0.89073720      -0.11819672       0.00000000
Si      -2.00503836       3.03955436       0.72056453       0.00000000
Si       1.15688322      -0.05531758       3.55752593       0.00000000
Si      -2.45154726      -2.32061217      -1.71486404       0.00000000
