10
Lattice="16.28999089631971 0.0 0.0 0.0 16.28999089631971 0.0 0.0 0.0 34.28971787722196" Properties=species:S:1:pos:R:3:initial_magmoms:R:1 pbc="T T T"
Si      -1.99352689       0.98746722       0.79044702       0.00000000
Si       0.50026916      -1.62813647       1.66260648       0.00000000
Si       1.67508604       1.69209117       0.29173708       0.00000000
Si       0.32077291      -0.41576478      -2.36918080       0.00000000
Si       0.05154319      -0.02925684       3.39584982       0.00000000
Si       0.82662628       3.09658239      -1.55956582       0.00000000
Si      -3.31337527      -0.88392146       1.18954527       0.00000000
Si       2.57707963      -1.18099568      -2.26806037       0.00000000
Si       2.87284087      -1.73950226       1.40114723       0.00000000
Si      -1.38711535       1.82527821       2.91092436       0.00000000
