10
Lattice="16.28999089631971 0.0 0.0 0.0 16.28999089631971 0.0 0.0 0.0 34.28971787722196" Properties=species:S:1:pos:R:3:initial_magmoms:R:1 pbc="T T T"
Si       1.33576371       1.35342207       1.38434183       0.00000000
Si      -1.37521809      -1.36348929       1.38300454       0.00000000
Si      -1.46059398       1.29500613      -1.42901450       0.00000000
Si       1.44568863      -1.37811771      -1.41852527       0.00000000
Si      -0.54566613      -2.02847967      -2.57690254       0.00000000
Si      -2.42121528      -0.48822759      -2.69553478       0.00000000
Si       2.68711695       2.71593396       0.01032121       0.00000000
Si      -2.73929382       2.69356779       0.02028581       0.00000000
Si       2.69653257      -0.00206883       2.74084383       0.00000000
Si       2.69734707      -2.74033638       0.01748777       0.00000000
