10
Lattice="16.28999089631971 0.0 0.0 0.0 16.28999089631971 0.0 0.0 0.0 34.28971787722196" Properties=species:S:1:pos:R:3:initial_magmoms:R:1 pbc="T T T"
Si      -1.35738054       1.35733167       1.35701634       0.00000000
Si       1.35713619      -1.35775521       1.35739353       0.00000000
Si      -1.35791811      -1.35783666      -1.35735924       0.00000000
Si       1.35826020       1.35769005      -1.35780501       0.00000000
Si       2.71150308      -0.00048870      -2.71502709       0.00000000
Si       2.71388142      -0.00146610       2.71379266       0.00000000
Si      -2.71334385       0.00074934      -2.71458132       0.00000000
Si      -2.71518462      -0.00042354       2.71423843       0.00000000
Si       0.00042354       2.71430496       2.71554144       0.00000000
Si      -2.71494027      -2.71528236       0.00010287       0.00000000
