10
Lattice="16.28999089631971 0.0 0.0 0.0 16.28999089631971 0.0 0.0 0.0 34.28971787722196" Properties=species:S:1:pos:R:3:initial_magmoms:R:1 pbc="T T T"
Si      -1.35718506       1.35531171      -1.36140543       0.00000000
Si       1.35819504      -1.36239786      -1.36202264       0.00000000
Si       1.36080144       1.36058967       1.37981902       0.00000000
Si      -1.36893015      -1.36063854       1.37837885       0.00000000
Si      -2.71301805       2.71231758       0.00130301       0.00000000
Si       2.71437012      -2.71309950      -0.00579497       0.00000000
Si       2.71731861       2.71117728      -0.00192023       0.00000000
Si      -2.71187775      -2.71717200      -0.00030861       0.00000000
Si       0.00061902       2.71306692      -2.71862751       0.00000000
Si      -2.71384884      -0.00203625      -2.71797601       0.00000000
