10
Lattice="16.28999089631971 0.0 0.0 0.0 16.28999089631971 0.0 0.0 0.0 34.28971787722196" Properties=species:S:1:pos:R:3:initial_magmoms:R:1 pbc="T T T"
Si      -2.13542352      -0.79138449       0.54815574       0.00000000
Si       0.94055202       0.76352859       2.05254937       0.00000000
Si       1.19061981      -2.08940427      -0.19325696       0.00000000
Si       0.44629713       1.33576371      -1.97416303       0.00000000
Si       2.19222675       2.40036408      -0.90408321       0.00000000
Si       2.94643746       1.38036573       1.04319667       0.00000000
Si      -3.41783748       0.89147025      -0.47851328       0.00000000
Si      -2.03833512      -2.86591599      -0.61855257       0.00000000
Si      -0.10063962      -2.98421397      -2.09980063       0.00000000
Si      -2.02463523      -0.97272477       2.97072566       0.00000000
