10
Lattice="16.28999089631971 0.0 0.0 0.0 16.28999089631971 0.0 0.0 0.0 34.28971787722196" Properties=species:S:1:pos:R:3:initial_magmoms:R:1 pbc="T T T"
Si      -1.72180413      -1.24256862       0.86790753       0.00000000
Si       2.13361533      -0.25070310       0.94992859       0.00000000
Si       0.55656414      -1.02872979      -2.05988737       0.00000000
Si      -1.01227689       2.16098253       0.22123738       0.00000000
Si      -3.24236160      -0.15338664      -0.55131039       0.00000000
Si       1.60047621      -2.99894013      -1.22805264       0.00000000
Si       0.25563897       3.37001004      -1.35602194       0.00000000
Si       2.33497602       2.32495767      -1.62732234       0.00000000
Si       3.31025832       1.65599253       0.37890159       0.00000000
Si       2.10046518       0.51140826      -3.12578385       0.00000000
