10
Lattice="16.28999089631971 0.0 0.0 0.0 16.28999089631971 0.0 0.0 0.0 34.28971787722196" Properties=species:S:1:pos:R:3:initial_magmoms:R:1 pbc="T T T"
Si      -0.93463875      -1.69676640      -1.27950542       0.00000000
Si       1.69396452       0.87474042      -1.36615254       0.00000000
Si      -1.34866539       1.37492487       1.34724720       0.00000000
Si       1.38360744      -1.35830907       1.35458863       0.00000000
Si      -1.51940088      -0.46661076      -3.28757796       0.00000000
Si       0.71871480       0.29898666      -3.57005681       0.00000000
Si       2.65458582       2.65797414      -0.09963226       0.00000000
Si      -2.69079360      -0.00004887       2.71077516       0.00000000
Si      -2.68339957      -2.72876559      -0.03912459       0.00000000
Si       0.02272455      -2.71166924       2.71283255       0.00000000
