10
Lattice="16.28999089631971 0.0 0.0 0.0 16.28999089631971 0.0 0.0 0.0 34.28971787722196" Properties=species:S:1:pos:R:3:initial_magmoms:R:1 pbc="T T T"
Si       1.14824952       1.82988828       0.88673260       0.00000000
Si      -1.15900092       1.44687780      -1.48419698       0.00000000
Si       1.53994257      -1.25032266      -1.46420606       0.00000000
Si      -1.82177586      -1.04422158       1.42316125       0.00000000
Si      -2.50978401       2.67737553      -0.01258433       0.00000000
Si       2.67993306      -2.67504606       0.04930864       0.00000000
Si      -2.50864371       0.10241523      -2.84913425       0.00000000
Si      -2.65981491      -2.76845292      -0.01097272       0.00000000
Si      -0.47801376       3.63431270       1.18505331       0.00000000
Si       0.20341323      -2.61030960      -2.84508806       0.00000000
