10
Lattice="16.28999089631971 0.0 0.0 0.0 16.28999089631971 0.0 0.0 0.0 34.28971787722196" Properties=species:S:1:pos:R:3:initial_magmoms:R:1 pbc="T T T"
Si      -1.05044436      -1.81742643       1.01243878       0.00000000
Si      -0.90880281       1.44277665      -1.60832583       0.00000000
Si       1.70439012      -0.66401298      -1.52668196       0.00000000
Si       0.24808041       1.38745907       1.94920010       0.00000000
Si       2.88609930       1.31294698      -1.26964609       0.00000000
Si       1.08624978       2.65335497      -2.04006791       0.00000000
Si       0.60457077      -3.30994881       1.79901105       0.00000000
Si      -0.14765256      -0.04020372       3.84165069       0.00000000
Si      -1.30717476       0.34747126      -3.60926914       0.00000000
Si       0.75463425      -0.79550586      -3.71608167       0.00000000
