10
Lattice="16.28999089631971 0.0 0.0 0.0 16.28999089631971 0.0 0.0 0.0 34.28971787722196" Properties=species:S:1:pos:R:3:initial_magmoms:R:1 pbc="T T T"
Si      -2.06518104      -1.04757732       0.06316170       0.00000000
Si       0.00807984       2.10913146      -1.12062290       0.00000000
Si       0.64150020       0.11943828       2.29850965       0.00000000
Si       1.42089525      -1.50772095      -1.23329897       0.00000000
Si       2.72083725      -0.92561409       2.02720925       0.00000000
Si       2.82939381       0.03199356      -2.34726966       0.00000000
Si       1.17437868       1.52451594      -3.13384194       0.00000000
Si      -1.61648928       3.34060659       0.31049357       0.00000000
Si       2.48632641      -2.73916350       0.52874775       0.00000000
Si      -3.34063917      -0.77455692      -1.84595370       0.00000000
