10
Lattice="16.28999089631971 0.0 0.0 0.0 16.28999089631971 0.0 0.0 0.0 34.28971787722196" Properties=species:S:1:pos:R:3:initial_magmoms:R:1 pbc="T T T"
Si      -0.00807984      -2.10913146       1.12062290       0.00000000
Si       1.16629884      -0.58461552      -2.01321904       0.00000000
Si      -1.62456912       1.23147513       1.43111647       0.00000000
Si       2.06909064       1.19260719       0.81599287       0.00000000
Si      -1.97030808       1.22634378      -1.08297276       0.00000000
Si       0.51945552       1.50807511       2.67315932       0.00000000
Si      -0.57169755      -1.48224339      -3.20897075       0.00000000
Si       3.63343563      -0.50815026       0.35294426       0.00000000
Si       2.82131397      -2.07713790      -1.22664676       0.00000000
Si       2.46482361       2.62026998      -1.07645771       0.00000000
