10
Lattice="16.28999089631971 0.0 0.0 0.0 16.28999089631971 0.0 0.0 0.0 34.28971787722196" Properties=species:S:1:pos:R:3:initial_magmoms:R:1 pbc="T T T"
Si       1.35438318      -1.35521145      -1.35855938       0.00000000
Si      -1.35773892      -1.35581418       1.35732495       0.00000000
Si       1.35669636       1.35870973       1.35657058       0.00000000
Si      -1.35679410       1.36106038      -1.35825077       0.00000000
Si       0.00024435       2.69463634      -2.72503626       0.00000000
Si       2.71461447      -2.71239651      -0.00120014       0.00000000
Si      -0.00053757      -2.71325988       2.71410127       0.00000000
Si      -2.71402803      -2.71423728      -0.00120014       0.00000000
Si       2.71463076       0.00112088       2.71430700       0.00000000
Si      -2.71503801       0.00169516       2.71444416       0.00000000
