10
Lattice="16.28999089631971 0.0 0.0 0.0 16.28999089631971 0.0 0.0 0.0 34.28971787722196" Properties=species:S:1:pos:R:3:initial_magmoms:R:1 pbc="T T T"
Si      -1.35138582      -1.35024552      -1.35797646       0.00000000
Si      -1.17825570       1.50327378       1.36490298       0.00000000
Si       1.36384767       1.36014984      -1.35578191       0.00000000
Si       1.20824559      -1.35410625       1.51512632       0.00000000
Si       2.13617286       0.60388659       2.74938541       0.00000000
Si       0.51888537       2.39915862       2.74952256       0.00000000
Si      -2.54125629       0.23615613       2.75315728       0.00000000
Si       0.00358380      -2.70852201      -2.71729021       0.00000000
Si      -2.71197549       0.00465894      -2.71705018       0.00000000
Si       2.71710684      -2.71339272       0.04615399       0.00000000
