10
Lattice="16.28999089631971 0.0 0.0 0.0 16.28999089631971 0.0 0.0 0.0 34.28971787722196" Properties=species:S:1:pos:R:3:initial_magmoms:R:1 pbc="T T T"
Si      -1.46520405       1.40217804      -1.10550112       0.00000000
Si       1.42755786       1.24382295       1.48670013       0.00000000
Si       1.83599703       0.27222219      -1.63291157       0.00000000
Si      -0.47465802      -2.04700140       1.44226063       0.00000000
Si       0.31043853      -0.12595428       2.97249642       0.00000000
Si       3.26995686       0.45822141       0.24578884       0.00000000
Si      -2.28600828      -0.25435206      -2.58373169       0.00000000
Si      -1.28344023      -3.15736038      -0.61810680       0.00000000
Si      -0.88653438      -2.08710738      -2.78864715       0.00000000
Si       2.00951811       2.59128288      -1.70519433       0.00000000
