10
Lattice="16.28999089631971 0.0 0.0 0.0 16.28999089631971 0.0 0.0 0.0 34.28971787722196" Properties=species:S:1:pos:R:3:initial_magmoms:R:1 pbc="T T T"
Si       1.35324288      -1.35817875      -1.35722208       0.00000000
Si      -1.35580041       1.35773892      -1.35849080       0.00000000
Si       1.35663120       1.35785295       1.35783930       0.00000000
Si      -1.35826020      -1.35769005       1.35780501       0.00000000
Si      -0.01171251       2.72176578      -2.70376634       0.00000000
Si       2.71313208       2.71406061       0.00065151       0.00000000
Si       2.71401174      -2.71366965      -0.00072008       0.00000000
Si      -2.71508688       2.71399545      -0.00061722       0.00000000
Si       2.71454931      -0.00060273       2.71478706       0.00000000
Si      -0.00079821       2.71498914       2.71506138       0.00000000
