10
Lattice="16.28999089631971 0.0 0.0 0.0 16.28999089631971 0.0 0.0 0.0 34.28971787722196" Properties=species:S:1:pos:R:3:initial_magmoms:R:1 pbc="T T T"
Si       1.22627047       1.50418602      -1.27172988       0.00000000
Si      -1.29968040       1.32115158       1.40462079       0.00000000
Si      -1.20328154      -1.22794020      -1.63172312       0.00000000
Si       1.40435275      -1.37973042       1.38733533       0.00000000
Si      -2.29122012       0.60999534      -2.62797714       0.00000000
Si       1.89644108       0.31886046      -3.13591102       0.00000000
Si      -2.55762678      -2.64712500      -0.20729861       0.00000000
Si      -2.68420008       2.63844243       0.03522242       0.00000000
Si      -2.65458486      -0.03932406       2.75521809       0.00000000
Si       0.06312049       2.67893937       2.74945741       0.00000000
