10
Lattice="16.28999089631971 0.0 0.0 0.0 16.28999089631971 0.0 0.0 0.0 34.28971787722196" Properties=species:S:1:pos:R:3:initial_magmoms:R:1 pbc="T T T"
Si      -1.36300059      -1.26711765       1.38825429       0.00000000
Si       1.17825570      -1.50327378      -1.36490298       0.00000000
Si       1.69714107       0.89588484       1.38461958       0.00000000
Si      -1.54227204       1.23149142      -1.33760835       0.00000000
Si       2.49820182       2.57237019      -0.03682718       0.00000000
Si       3.31442856      -0.89938719       1.38448242       0.00000000
Si       2.38650129      -2.85738003       0.15022334       0.00000000
Si       2.54210337      -0.14312394      -2.72068490       0.00000000
Si      -0.17959725       2.57891877      -2.72253654       0.00000000
Si       0.06963975      -2.43721206       2.89792855       0.00000000
