10
Lattice="16.28999089631971 0.0 0.0 0.0 16.28999089631971 0.0 0.0 0.0 34.28971787722196" Properties=species:S:1:pos:R:3:initial_magmoms:R:1 pbc="T T T"
Si       1.09636587       2.17720737       0.41524872       0.00000000
Si       1.11847140      -1.90122219      -1.14493432       0.00000000
Si      -0.37227537      -0.66122739       2.40891442       0.00000000
Si      -2.07702387       0.52033518      -1.41962940       0.00000000
Si      -2.21978943       0.99676881       2.27611845       0.00000000
Si      -1.67873337      -0.83600280      -3.25083852       0.00000000
Si       0.54392310      -1.53603297      -3.43576307       0.00000000
Si      -0.06757092      -3.78980334      -0.36220249       0.00000000
Si       1.65472191       0.01141929       3.49437593       0.00000000
Si       0.28370664       3.76794216      -1.05622677       0.00000000
