10
Lattice="16.28999089631971 0.0 0.0 0.0 16.28999089631971 0.0 0.0 0.0 34.28971787722196" Properties=species:S:1:pos:R:3:initial_magmoms:R:1 pbc="T T T"
Si       1.28508552      -1.37065689      -1.41068664       0.00000000
Si      -1.34560287      -1.37086866       1.36437835       0.00000000
Si       1.37039625       1.34737426       1.36695008       0.00000000
Si      -1.34583093       1.36790129      -1.45005469       0.00000000
Si      -2.70148473       2.70000953       0.00788321       0.00000000
Si       2.72743470       2.68095023       0.00016459       0.00000000
Si      -2.70314631      -2.72033226      -0.00781120       0.00000000
Si       0.01050705       2.70281141       2.72427503       0.00000000
Si      -2.70497079      -0.01205674       2.72427503       0.00000000
Si       0.01316232      -2.72792340       2.72400071       0.00000000
