10
Lattice="16.28999089631971 0.0 0.0 0.0 16.28999089631971 0.0 0.0 0.0 34.28971787722196" Properties=species:S:1:pos:R:3:initial_magmoms:R:1 pbc="T T T"
Si      -0.96599700      -1.58524506      -1.47675611       0.00000000
Si      -1.89556956       1.56512432       0.00493772       0.00000000
Si       1.67984109       1.14194529      -1.40622212       0.00000000
Si       0.53828676      -0.92737341       2.56596960       0.00000000
Si      -2.21009688      -0.07431498      -3.01516516       0.00000000
Si       2.87106363      -2.52229473      -0.38606815       0.00000000
Si      -3.48995331       0.49533003       1.60263373       0.00000000
Si       3.02449914       2.44811400       0.13160401       0.00000000
Si      -2.47534695      -3.07017630       0.11572786       0.00000000
Si       1.74231324       0.89937090       3.46916128       0.00000000
