10
Lattice="16.28999089631971 0.0 0.0 0.0 16.28999089631971 0.0 0.0 0.0 34.28971787722196" Properties=species:S:1:pos:R:3:initial_magmoms:R:1 pbc="T T T"
Si       1.18170918       1.97695996       0.25703587       0.00000000
Si       1.48235742      -1.67676228       0.69824192       0.00000000
Si      -1.70439012       0.66401298       1.52668196       0.00000000
Si      -0.94975587      -0.13149288      -2.18939971       0.00000000
Si      -2.61319293       2.10678963      -0.08164386       0.00000000
Si      -0.61814034       3.31736795      -0.51338594       0.00000000
Si      -1.49273415      -2.47808367      -2.11790561       0.00000000
Si       3.07848420      -1.55419632      -1.22606384       0.00000000
Si       1.91844072       1.77472449       2.59175548       0.00000000
Si       0.26252964      -3.45253518       1.52153850       0.00000000
