10
Lattice="16.28999089631971 0.0 0.0 0.0 16.28999089631971 0.0 0.0 0.0 34.28971787722196" Properties=species:S:1:pos:R:3:initial_magmoms:R:1 pbc="T T T"
Si      -1.12360275       1.50294798       1.38259649       0.00000000
Si       1.85864013       1.19534391      -0.78513211       0.00000000
Si      -1.32843321      -0.10586871      -2.00958433       0.00000000
Si       0.80889624      -1.69894926       1.53035096       0.00000000
Si      -2.54826099      -1.88164161      -1.18628774       0.00000000
Si       1.40154273       3.08402021       0.54993880       0.00000000
Si      -0.89234991       3.34561806      -0.11607076       0.00000000
Si       0.74945403       2.25433972       2.71122093       0.00000000
Si       3.55571604      -0.47594493      -0.75512859       0.00000000
Si      -0.82554462      -3.54770136      -1.11791401       0.00000000
