10
Lattice="16.28999089631971 0.0 0.0 0.0 16.28999089631971 0.0 0.0 0.0 34.28971787722196" Properties=species:S:1:pos:R:3:initial_magmoms:R:1 pbc="T T T"
Si       1.96072046      -0.65445012      -1.04864535       0.00000000
Si       1.56626136       1.24346099       1.24771918       0.00000000
Si      -1.26882810      -1.56553353       1.23289230       0.00000000
Si      -1.23988077       0.13986399      -2.03636122       0.00000000
Si       0.93863047       0.08587241      -2.99757113       0.00000000
Si      -2.52047025      -0.10105223       2.62862861       0.00000000
Si       0.20069280       2.63243924       2.61749473       0.00000000
Si      -2.03002722      -2.13042186      -2.48055048       0.00000000
Si      -1.96775055      -3.29975064      -0.26491912       0.00000000
Si       0.19776060      -2.80279161       2.63852120       0.00000000
