10
Lattice="16.28999089631971 0.0 0.0 0.0 16.28999089631971 0.0 0.0 0.0 34.28971787722196" Properties=species:S:1:pos:R:3:initial_magmoms:R:1 pbc="T T T"
Si       1.35747828       1.35661491      -1.35770214       0.00000000
Si      -1.35669636      -1.35870973      -1.35657058       0.00000000
Si      -1.35716877       1.35760860       1.35766785       0.00000000
Si       1.35793440      -1.35758885       1.35773643       0.00000000
Si      -2.71349046       0.00235065      -2.71482135       0.00000000
Si      -2.71406061       2.71469592      -0.00006858       0.00000000
Si      -2.71443528      -2.71452392       0.00075437       0.00000000
Si       2.71484253      -0.00048707       2.71420414       0.00000000
Si      -0.00231318      -2.71392119      -2.71512996       0.00000000
Si      -0.00009774       2.71552671       2.71382695       0.00000000
