10
Lattice="16.28999089631971 0.0 0.0 0.0 16.28999089631971 0.0 0.0 0.0 34.28971787722196" Properties=species:S:1:pos:R:3:initial_magmoms:R:1 pbc="T T T"
Si      -1.35360126      -1.35081567      -1.39974136       0.00000000
Si       1.36047087       1.36189287      -1.40217593       0.00000000
Si      -1.50886125       1.35928647       1.46897233       0.00000000
Si       1.30474755      -1.57017681       1.55181634       0.00000000
Si       2.70171509       2.71805166      -0.01755635       0.00000000
Si      -2.71710684       2.71339272      -0.04615399       0.00000000
Si      -2.71969695      -2.71783174      -0.00562352       0.00000000
Si       2.72358279      -2.72684174      -0.01556754       0.00000000
Si       2.33710254      -0.04308705       3.07695526       0.00000000
Si       0.00141723      -2.71114307      -2.76306701       0.00000000
