10
Lattice="16.28999089631971 0.0 0.0 0.0 16.28999089631971 0.0 0.0 0.0 34.28971787722196" Properties=species:S:1:pos:R:3:initial_magmoms:R:1 pbc="T T T"
Si      -1.31984838      -1.87138868       0.39909825       0.00000000
Si      -0.91127889       1.59417198      -1.44661543       0.00000000
Si       0.60641154       0.83781099       2.12047734       0.00000000
Si       1.99352689      -0.98746722      -0.79044702       0.00000000
Si       2.04507008      -1.01672406       2.60540280       0.00000000
Si       2.49379605      -2.61560369       0.87215946       0.00000000
Si       0.77248809       3.23986923      -1.74229583       0.00000000
Si       3.66861293       0.70462395      -0.49870994       0.00000000
Si       1.89531774       2.78461260       1.85678926       0.00000000
Si      -2.69695611       2.73178413      -0.37413532       0.00000000
