10
Lattice="16.28999089631971 0.0 0.0 0.0 16.28999089631971 0.0 0.0 0.0 34.28971787722196" Properties=species:S:1:pos:R:3:initial_magmoms:R:1 pbc="T T T"
Si      -2.01290643      -0.67735449      -1.02570890       0.00000000
Si       0.38933100       2.02331574      -1.16663972       0.00000000
Si       1.78028523      -1.25008483      -0.94903705       0.00000000
Si      -0.29074392      -0.14698467       2.66259808       0.00000000
Si       3.46508078       0.32195556      -0.54678415       0.00000000
Si      -1.57442850      -0.50321439      -3.33354537       0.00000000
Si      -2.27678814      -2.93986349      -0.44634951       0.00000000
Si      -0.29418111       1.50113979      -3.45321655       0.00000000
Si       2.68097629       2.43452421      -1.21769714       0.00000000
Si      -0.87045615       3.73251141      -0.07955219       0.00000000
