10
Lattice="16.28999089631971 0.0 0.0 0.0 16.28999089631971 0.0 0.0 0.0 34.28971787722196" Properties=species:S:1:pos:R:3:initial_magmoms:R:1 pbc="T T T"
Si       1.35762489       1.35729909       1.35667345       0.00000000
Si      -1.35826020      -1.35733167       1.35622768       0.00000000
Si      -1.35734796       1.35731538      -1.35732495       0.00000000
Si       1.35764118      -1.35741312      -1.35780501       0.00000000
Si      -2.71322982       0.00094482       2.71554144       0.00000000
Si       0.00200367       2.71134018       2.71773598       0.00000000
Si      -0.00011403       2.71412577      -2.71516425       0.00000000
Si      -2.71489140       2.71440270      -0.00034290       0.00000000
Si       2.71477909       2.71459818      -0.00027432       0.00000000
Si       2.71480521      -2.71511946       0.00024003       0.00000000
