10
Lattice="16.28999089631971 0.0 0.0 0.0 16.28999089631971 0.0 0.0 0.0 34.28971787722196" Properties=species:S:1:pos:R:3:initial_magmoms:R:1 pbc="T T T"
Si       1.35562122      -1.35404109      -1.36106253       0.00000000
Si       1.34944731       1.38245085       1.34525496       0.00000000
Si      -1.36384767      -1.36014984       1.35578191       0.00000000
Si      -1.36065483       1.36049193      -1.35879941       0.00000000
Si      -2.54210337       0.14312394       2.72068490       0.00000000
Si       2.60657919       0.04375494       2.78202924       0.00000000
Si      -0.04390155       2.71549413       2.68385772       0.00000000
Si       2.71373004      -2.71164969      -0.00024003       0.00000000
Si      -2.71523349      -2.71039536      -0.00219454       0.00000000
Si      -0.00200367      -2.71134018      -2.71773598       0.00000000
