10
Lattice="16.28999089631971 0.0 0.0 0.0 16.28999089631971 0.0 0.0 0.0 34.28971787722196" Properties=species:S:1:pos:R:3:initial_magmoms:R:1 pbc="T T T"
Si       1.83425400       0.80001819      -1.32313808       0.00000000
Si      -1.61728749       1.79527203       0.00013716       0.00000000
Si       0.54617112       0.14454117       2.41886663       0.00000000
Si      -0.92792727      -1.95799284      -1.23425908       0.00000000
Si      -2.13617286      -0.60388659      -2.74938541       0.00000000
Si       0.57712212       2.13871410      -2.75991235       0.00000000
Si      -1.67412330       0.61820550       3.15558163       0.00000000
Si       1.94689494       2.15889741       2.27244945       0.00000000
Si      -3.31442856       0.89938719      -1.38448242       0.00000000
Si       3.35877550       1.78776234       0.22175173       0.00000000
