10
Lattice="16.28999089631971 0.0 0.0 0.0 16.28999089631971 0.0 0.0 0.0 34.28971787722196" Properties=species:S:1:pos:R:3:initial_magmoms:R:1 pbc="T T T"
Si      -1.84239900       0.78560154       1.24091129       0.00000000
Si       1.08793858      -1.83793554       0.99625402       0.00000000
Si      -1.43395983      -0.18599922      -1.87870040       0.00000000
Si       0.71581518       2.35537110      -0.46551747       0.00000000
Si      -1.26043875       2.13306147      -1.95098317       0.00000000
Si       2.39541259      -1.76526585      -1.17140600       0.00000000
Si      -3.26995686      -0.45822141      -0.24578884       0.00000000
Si      -0.39297996       2.02844709       2.66319956       0.00000000
Si       2.29122012      -0.60999534       2.62797714       0.00000000
Si       3.51749060       0.89419068       1.35624726       0.00000000
