10
Lattice="16.28999089631971 0.0 0.0 0.0 16.28999089631971 0.0 0.0 0.0 34.28971787722196" Properties=species:S:1:pos:R:3:initial_magmoms:R:1 pbc="T T T"
Si       1.89680271       1.42363197      -0.02763753       0.00000000
Si      -0.16701648      -1.43578431      -1.88127213       0.00000000
Si      -2.04766507       1.13075406       0.60771701       0.00000000
Si       0.84845976      -1.40449122       1.85130290       0.00000000
Si       3.31942470      -0.34728651       0.13026671       0.00000000
Si      -0.82662628      -3.09658239       1.55956582       0.00000000
Si       1.75033932       2.32740117       2.15380696       0.00000000
Si      -0.50585337      -3.51234717      -0.80961498       0.00000000
Si       1.25582379       0.30472074       3.40877705       0.00000000
Si      -3.73143205      -0.51494319       0.90339741       0.00000000
