10
Lattice="16.28999089631971 0.0 0.0 0.0 16.28999089631971 0.0 0.0 0.0 34.28971787722196" Properties=species:S:1:pos:R:3:initial_magmoms:R:1 pbc="T T T"
Si       0.80106075       1.67648535      -1.42144676       0.00000000
Si      -1.69714107      -0.89588484      -1.38461958       0.00000000
Si       1.61728749      -1.79527203      -0.00013716       0.00000000
Si      -0.05683581      -1.17706653       3.15544447       0.00000000
Si       2.19440961       0.34344207      -2.76004951       0.00000000
Si       2.16345861      -1.65073086       2.41872947       0.00000000
Si      -0.77243922       1.17239130       3.39615843       0.00000000
Si      -0.51888537      -2.39915862      -2.74952256       0.00000000
Si      -3.06014166      -2.16300249       0.00363471       0.00000000
Si       1.85960124       3.27588642      -0.11188741       0.00000000
