10
Lattice="16.28999089631971 0.0 0.0 0.0 16.28999089631971 0.0 0.0 0.0 34.28971787722196" Properties=species:S:1:pos:R:3:initial_magmoms:R:1 pbc="T T T"
Si      -1.05854049      -1.59940107      -1.30955935       0.00000000
Si       0.81516789      -0.59095233       2.10847593       0.00000000
Si       1.70713596       1.03566933      -1.24485461       0.00000000
Si       2.04109532       1.51684335       2.42058112       0.00000000
Si      -2.39438565      -0.23361489      -2.63132584       0.00000000
Si       0.33545997       2.47653612      -2.60348257       0.00000000
Si      -0.95736330      -0.40858578       3.60090245       0.00000000
Si      -1.85960124      -3.27588642       0.11188741       0.00000000
Si      -2.87106363       2.52229473       0.38606815       0.00000000
Si       3.39538076       1.81496664       0.35476162       0.00000000
