10
Lattice="16.28999089631971 0.0 0.0 0.0 16.28999089631971 0.0 0.0 0.0 34.28971787722196" Properties=species:S:1:pos:R:3:initial_magmoms:R:1 pbc="T T T"
Si       1.11462696      -1.52055747       1.41650904       0.00000000
Si      -0.64583334       1.80336816       1.39254051       0.00000000
Si       1.78894241       0.88216866      -1.31435991       0.00000000
Si      -2.05517898      -0.78279966      -1.03644159       0.00000000
Si       0.69164082       0.44020467      -3.32192114       0.00000000
Si       1.70168339      -2.69061930      -1.56501789       0.00000000
Si       3.07068848      -0.31408749       1.89663394       0.00000000
Si      -0.58764546      -2.53474029       2.65608303       0.00000000
Si       3.34527272      -0.96544314      -1.44760983       0.00000000
Si      -2.11462119       3.17048932       0.14442837       0.00000000
