10
Lattice="16.28999089631971 0.0 0.0 0.0 16.28999089631971 0.0 0.0 0.0 34.28971787722196" Properties=species:S:1:pos:R:3:initial_magmoms:R:1 pbc="T T T"
Si      -1.36280089      -1.35778779      -1.34483663       0.00000000
Si      -1.35967615       1.35469269       1.36154259       0.00000000
Si       1.35621906      -1.36127385       1.36092537       0.00000000
Si       1.35830418       1.36321236      -1.38377605       0.00000000
Si       2.71076514       2.71360449       0.00212596       0.00000000
Si      -2.71519669       2.71345788       0.00229741       0.00000000
Si      -0.06312049      -2.67893937      -2.74945741       0.00000000
Si       2.71599423      -2.71596654       0.00480056       0.00000000
Si      -0.00086663       2.71332756       2.71924473       0.00000000
Si       2.71415346      -0.00162900       2.71931331       0.00000000
