10
Lattice="16.28999089631971 0.0 0.0 0.0 16.28999089631971 0.0 0.0 0.0 34.28971787722196" Properties=species:S:1:pos:R:3:initial_magmoms:R:1 pbc="T T T"
Si       1.35718104       1.32662502       1.36154259       0.00000000
Si      -1.36340113      -1.33696917       1.35043271       0.00000000
Si      -1.35758560       1.35400851      -1.35715350       0.00000000
Si       1.35537447      -1.35821133      -1.35550759       0.00000000
Si       0.00892646       2.63114451       2.75374020       0.00000000
Si       2.56728531      -0.15622110       2.83987602       0.00000000
Si      -0.00011429       2.71388142      -2.71293542       0.00000000
Si      -2.71465663      -0.00087966      -2.71314115       0.00000000
Si       2.71495416      -0.00094482      -2.71286684       0.00000000
Si      -0.00007302      -2.71616202      -2.71283255       0.00000000
