10
Lattice="16.28999089631971 0.0 0.0 0.0 16.28999089631971 0.0 0.0 0.0 34.28971787722196" Properties=species:S:1:pos:R:3:initial_magmoms:R:1 pbc="T T T"
Si       1.27545813      -0.27302040       1.90911540       0.00000000
Si       1.65563415      -0.46048572      -1.60290805       0.00000000
Si      -1.64358932      -1.72517616      -0.11740806       0.00000000
Si      -1.55633031       1.84761180       0.13324992       0.00000000
Si      -0.27458424       0.65135565       3.34424376       0.00000000
Si      -1.21062719      -2.51600679       2.02854655       0.00000000
Si       0.23162751      -0.60882246      -3.45674839       0.00000000
Si      -2.65363190       1.40564781      -1.87431132       0.00000000
Si      -0.72154274       1.55566242      -3.19762085       0.00000000
Si      -2.23064576      -0.55511433       2.86411887       0.00000000
