10
Lattice="16.28999089631971 0.0 0.0 0.0 16.28999089631971 0.0 0.0 0.0 34.28971787722196" Properties=species:S:1:pos:R:3:initial_magmoms:R:1 pbc="T T T"
Si      -1.35565003      -1.35496962      -1.35866225       0.00000000
Si       1.36292077      -1.35420399       1.35598765       0.00000000
Si       1.35953245       1.35984827      -1.35842222       0.00000000
Si      -1.35880121       1.36316897       1.36099395       0.00000000
Si      -2.71312135      -2.71484253      -0.00288034       0.00000000
Si       0.00169742      -2.71225242      -2.71574717       0.00000000
Si       2.71518625      -2.71332756      -0.00109727       0.00000000
Si      -2.71279555       0.00247608      -2.71612436       0.00000000
Si      -2.71370779       2.71703421      -0.00168020       0.00000000
Si       2.71582156       2.71595092      -0.00171449       0.00000000
