10
Lattice="16.28999089631971 0.0 0.0 0.0 16.28999089631971 0.0 0.0 0.0 34.28971787722196" Properties=species:S:1:pos:R:3:initial_magmoms:R:1 pbc="T T T"
Si       1.34964279       1.34446257       1.36493727       0.00000000
Si       1.35226548      -1.35912357      -1.35708492       0.00000000
Si      -1.36292077       1.35420399      -1.35598765       0.00000000
Si      -1.36127548      -1.38802203       1.35982810       0.00000000
Si       2.50864371      -0.10241523       2.84913425       0.00000000
Si      -0.00114030       2.57496030       2.83654992       0.00000000
Si       2.71099809       2.71197078       0.00565781       0.00000000
Si       2.71205694      -2.71272483       0.00404619       0.00000000
Si       2.71107954      -0.00048870      -2.71406698       0.00000000
Si      -0.00338832       2.71405226      -2.71440987       0.00000000
