10
Lattice="16.28999089631971 0.0 0.0 0.0 16.28999089631971 0.0 0.0 0.0 34.56409401068381" Properties=species:S:1:pos:R:3:initial_magmoms:R:1 pbc="T T T"
Si      -1.28651904      -1.32514263      -1.52015186       0.00000000
Si       1.19086416      -1.43816265       1.55120630       0.00000000
Si       1.90597887       0.71299701      -1.41369440       0.00000000
Si      -1.49582925       1.27366623       1.55953279       0.00000000
Si       2.57593770       2.47322925       0.12216340       0.00000000
Si       0.62343459      -1.90083123      -2.98853909       0.00000000
Si       2.47063914      -2.93913954       0.10132815       0.00000000
Si      -2.98779777       2.48339421       0.19920335       0.00000000
Si       2.55873546      -0.06921621       2.93776990       0.00000000
Si      -2.81031822      -2.71841004       0.08844265       0.00000000
