10
Lattice="16.28999089631971 0.0 0.0 0.0 16.28999089631971 0.0 0.0 0.0 34.56409401068381" Properties=species:S:1:pos:R:3:initial_magmoms:R:1 pbc="T T T"
Si      -0.07605801       2.20030659      -0.71654863       0.00000000
Si       1.56721203      -0.62545455       1.60100973       0.00000000
Si       1.15613388      -0.53590842      -2.06862762       0.00000000
Si      -2.37021129      -0.67821786       0.89925454       0.00000000
Si      -0.68448951       2.56749948       1.54581084       0.00000000
Si      -1.37565792      -2.51633259       1.91585424       0.00000000
Si       2.36374416      -2.59352601       0.56260007       0.00000000
Si       0.22872789      -1.49657859       3.34763807       0.00000000
Si      -0.58756401      -1.47572739      -3.37280074       0.00000000
Si       2.50890435       1.33345053       2.52594540       0.00000000
