10
Lattice="16.28999089631971 0.0 0.0 0.0 16.28999089631971 0.0 0.0 0.0 34.56409401068381" Properties=species:S:1:pos:R:3:initial_magmoms:R:1 pbc="T T T"
Si      -1.17473706       1.37510406       1.55382971       0.00000000
Si      -1.12542723       0.27183123      -2.09033388       0.00000000
Si      -0.59702850      -2.29087899       0.45994466       0.00000000
Si       2.24125965       0.85506210       0.32652718       0.00000000
Si       2.47725288      -0.72739737       2.03821120       0.00000000
Si      -1.83130551       3.16418589       0.05848248       0.00000000
Si      -0.30284739      -1.45060821      -3.49688591       0.00000000
Si       1.45065708      -2.62774642      -2.38720505       0.00000000
Si      -0.10958283       2.05410384      -3.27208092       0.00000000
Si      -2.87034687      -2.79936482      -0.17966426       0.00000000
