10
Lattice="16.28999089631971 0.0 0.0 0.0 16.28999089631971 0.0 0.0 0.0 34.56409401068381" Properties=species:S:1:pos:R:3:initial_magmoms:R:1 pbc="T T T"
Si      -0.39817647      -2.16932301      -1.12271153       0.00000000
Si      -1.90995363       0.57568860       1.46838723       0.00000000
Si       0.70830549       1.41340185      -2.00482227       0.00000000
Si       1.28254428       2.61382824       1.57484470       0.00000000
Si       2.93926986       0.59354244       1.77462527       0.00000000
Si      -0.62343459       1.90083123       2.98853909       0.00000000
Si       1.84720455      -1.03830831       3.08986725       0.00000000
Si      -0.37558224       3.46643055      -1.56457915       0.00000000
Si       1.07632917      -3.15462366       1.93409376       0.00000000
Si      -3.35310102       2.01321594       0.18782139       0.00000000
