10
Lattice="16.28999089631971 0.0 0.0 0.0 16.28999089631971 0.0 0.0 0.0 34.56409401068381" Properties=species:S:1:pos:R:3:initial_magmoms:R:1 pbc="T T T"
Si       1.35135324      -1.35814617       1.35812770       0.00000000
Si      -1.36014984       1.35866745       1.35764381       0.00000000
Si       1.35490446       1.33843527      -1.38613846       0.00000000
Si      -1.34006427      -1.37086866      -1.37816798       0.00000000
Si      -0.16886214       2.49254919      -2.79685892       0.00000000
Si       2.71120986       0.00094482       2.71463090       0.00000000
Si       2.71160082       2.71630863      -0.00760410       0.00000000
Si       2.71450044      -2.71375110       0.00006913       0.00000000
Si      -0.00355122      -2.71370223       2.71504567       0.00000000
Si      -0.00364896       2.71635750       2.71552956       0.00000000
