10
Lattice="16.28999089631971 0.0 0.0 0.0 16.28999089631971 0.0 0.0 0.0 34.56409401068381" Properties=species:S:1:pos:R:3:initial_magmoms:R:1 pbc="T T T"
Si      -0.52256691       0.22257027      -2.17415186       0.00000000
Si       0.57168126      -2.13218181       0.62353660       0.00000000
Si       1.64747286       1.58485410       0.31837005       0.00000000
Si      -1.96964019      -0.15209973       1.36431468       0.00000000
Si      -0.56664765      -2.62700685      -1.54957833       0.00000000
Si      -0.97539633       0.91101825       3.20492284       0.00000000
Si       0.32922090       3.52810449       0.43848034       0.00000000
Si      -2.91379230      -1.85430699      -1.48528908       0.00000000
Si       2.49077358       2.01735360      -2.00547898       0.00000000
Si       1.30396563      -2.27195001       2.89242870       0.00000000
