10
Lattice="16.28999089631971 0.0 0.0 0.0 16.28999089631971 0.0 0.0 0.0 34.56409401068381" Properties=species:S:1:pos:R:3:initial_magmoms:R:1 pbc="T T T"
Si       0.53576181      -1.90511550      -1.24413526       0.00000000
Si      -1.74360015       1.27785276      -0.93164111       0.00000000
Si       1.59650145       1.72372635       0.22262745       0.00000000
Si      -0.77796153      -1.01053386       2.03364874       0.00000000
Si       3.07292931       0.54193572       1.56292008       0.00000000
Si       0.25690959       3.32677638       1.29933415       0.00000000
Si      -0.61195014       0.80179380       3.54278705       0.00000000
Si       2.41761519       1.99751238      -1.98425662       0.00000000
Si      -1.38517128      -3.26893059      -1.09243337       0.00000000
Si      -3.30310701       1.55960460       0.79926056       0.00000000
