10
Lattice="16.28999089631971 0.0 0.0 0.0 16.28999089631971 0.0 0.0 0.0 34.56409401068381" Properties=species:S:1:pos:R:3:initial_magmoms:R:1 pbc="T T T"
Si       1.04967873       1.11920445       1.75682475       0.00000000
Si      -1.39975083      -1.50012981       1.12564948       0.00000000
Si       1.62683343      -1.18250739      -1.27057681       0.00000000
Si      -1.27086435       1.83831021      -0.86666058       0.00000000
Si       1.23893595       3.17571921       0.63566861       0.00000000
Si      -3.36771315       0.81565659      -0.78754332       0.00000000
Si      -3.36334743      -0.14564889       1.36887714       0.00000000
Si       3.26647080      -1.52555850       0.46308999       0.00000000
Si       2.93382900      -0.07167600       2.33356155       0.00000000
Si      -3.00526065      -1.16812332      -2.01239181       0.00000000
