10
Lattice="16.28999089631971 0.0 0.0 0.0 16.28999089631971 0.0 0.0 0.0 34.56409401068381" Properties=species:S:1:pos:R:3:initial_magmoms:R:1 pbc="T T T"
Si      -0.16601139      -1.81232766      -1.50913832       0.00000000
Si      -0.64767411      -0.50503887       2.23152828       0.00000000
Si       2.34378891      -0.47491866      -0.00680913       0.00000000
Si      -1.15458633       1.77046236      -1.20366068       0.00000000
Si       0.86885973       2.52498258      -2.24345290       0.00000000
Si       2.15453169      -2.53143342       1.11434701       0.00000000
Si       0.61195014      -0.80179380      -3.54278705       0.00000000
Si      -2.58924663      -1.81335393       1.97710185       0.00000000
Si       1.07756721      -1.89384282       3.10185266       0.00000000
Si       1.10485296      -3.65063787      -0.64247774       0.00000000
