10
Lattice="16.28999089631971 0.0 0.0 0.0 16.28999089631971 0.0 0.0 0.0 34.56409401068381" Properties=species:S:1:pos:R:3:initial_magmoms:R:1 pbc="T T T"
Si       0.91109970       1.25165844      -1.78827810       0.00000000
Si       1.75062114      -1.25019234       1.30832082       0.00000000
Si      -1.33139799       1.66713882       1.34274667       0.00000000
Si      -1.54443861      -1.21787298      -1.75844927       0.00000000
Si      -1.26271935      -3.04497567       1.13964794       0.00000000
Si       1.17916794       2.92690153       1.99787488       0.00000000
Si       1.79597250       3.25950587      -0.52786314       0.00000000
Si       2.58041745      -2.72466540      -0.41632475       0.00000000
Si      -0.41093154       0.26055855       3.75228014       0.00000000
Si      -2.84755716      -2.75009409      -0.46796353       0.00000000
