10
Lattice="16.28999089631971 0.0 0.0 0.0 16.28999089631971 0.0 0.0 0.0 34.56409401068381" Properties=species:S:1:pos:R:3:initial_magmoms:R:1 pbc="T T T"
Si      -1.33434648       1.28725209       1.39842946       0.00000000
Si       1.33828866       1.35117405      -1.34506247       0.00000000
Si       1.38645819      -1.21828023       1.43721040       0.00000000
Si      -1.36995642      -1.37026593      -1.34015437       0.00000000
Si      -0.54097461      -2.17466613       2.84210335       0.00000000
Si      -2.36538945      -0.44965287       2.73661367       0.00000000
Si       2.68884369       2.70953199       0.02281231       0.00000000
Si       2.69894349      -0.00716760      -2.70056330       0.00000000
Si       2.68170867      -2.72015470       0.03124596       0.00000000
Si      -0.01399311       2.70751203      -2.70139284       0.00000000
