10
Lattice="16.28999089631971 0.0 0.0 0.0 16.28999089631971 0.0 0.0 0.0 34.56409401068381" Properties=species:S:1:pos:R:3:initial_magmoms:R:1 pbc="T T T"
Si       2.03774868      -0.23472913       1.06315756       0.00000000
Si      -1.30377015      -1.65956723       1.07352680       0.00000000
Si      -0.66885111       2.07187623       1.00208277       0.00000000
Si       0.32940009       0.63988749      -2.30604851       0.00000000
Si      -2.80534977      -1.23779516      -1.97343805       0.00000000
Si       0.91887003       2.88521964      -2.03765817       0.00000000
Si      -3.26537937      -0.47935443       1.58237967       0.00000000
Si       2.83297761       1.92811698       1.36925735       0.00000000
Si       1.57749102      -1.20121320       3.17533596       0.00000000
Si      -2.20814208      -2.98278764      -0.56622930       0.00000000
