10
Lattice="16.28999089631971 0.0 0.0 0.0 16.28999089631971 0.0 0.0 0.0 34.56409401068381" Properties=species:S:1:pos:R:3:initial_magmoms:R:1 pbc="T T T"
Si      -2.03774868       0.23472913      -1.06315756       0.00000000
Si       0.79522893       2.16284611       0.30609979       0.00000000
Si       1.72196703      -0.98408851      -1.27876850       0.00000000
Si      -0.46025766      -0.96648407       2.11217840       0.00000000
Si       2.82077640       1.30613872       1.32518810       0.00000000
Si      -2.70659979       2.30660536      -0.06107479       0.00000000
Si      -3.34151883      -1.42483810       0.01036923       0.00000000
Si       0.98683191       2.99184421      -1.92746778       0.00000000
Si       3.66803559       0.17510773      -0.57449013       0.00000000
Si       1.46880414      -2.13006478       2.83239083       0.00000000
