10
Lattice="16.28999089631971 0.0 0.0 0.0 16.28999089631971 0.0 0.0 0.0 34.56409401068381" Properties=species:S:1:pos:R:3:initial_magmoms:R:1 pbc="T T T"
Si      -1.21741686       1.39318596       1.45183102       0.00000000
Si      -1.56905280      -1.18913742      -1.35096399       0.00000000
Si       0.91671975       1.73763801      -1.41390524       0.00000000
Si       1.49524281      -1.30026780       1.41652032       0.00000000
Si      -2.55581955       2.59138062      -0.01488676       0.00000000
Si      -3.22577838       0.83114838      -1.55074456       0.00000000
Si      -0.01016496      -2.43146169      -2.78015551       0.00000000
Si      -0.74083662       3.48584823      -1.24862987       0.00000000
Si      -2.57302179       0.04893516       2.80071973       0.00000000
Si       0.13712922      -2.66670558       2.79850763       0.00000000
