10
Lattice="16.28999089631971 0.0 0.0 0.0 16.28999089631971 0.0 0.0 0.0 34.56409401068381" Properties=species:S:1:pos:R:3:initial_magmoms:R:1 pbc="T T T"
Si       1.35228177      -1.35633798       1.35633037       0.00000000
Si       1.35485559       1.35708732      -1.35754012       0.00000000
Si      -1.35972630      -1.35731538      -1.35709078       0.00000000
Si      -1.36000323       1.35557235       1.36023612       0.00000000
Si       0.01399311      -2.70751203       2.70139284       0.00000000
Si       2.71212210      -0.00019548      -2.71428526       0.00000000
Si       2.71220355       2.71438641       0.00024195       0.00000000
Si       2.70283680       0.00201996       2.72420516       0.00000000
Si       2.71293660      -2.71467963       0.00082954       0.00000000
Si      -0.00236205       2.71397916      -2.71511479       0.00000000
