10
Lattice="16.28999089631971 0.0 0.0 0.0 16.28999089631971 0.0 0.0 0.0 34.56409401068381" Properties=species:S:1:pos:R:3:initial_magmoms:R:1 pbc="T T T"
Si       1.38996054      -1.74322548      -0.80513646       0.00000000
Si       0.08294868       1.43630559      -1.91022029       0.00000000
Si      -2.27494737      -0.57603069       0.53747196       0.00000000
Si       1.32603858       1.23668793       1.62738215       0.00000000
Si       2.99476989       1.71545103      -0.04507160       0.00000000
Si       3.23410257      -0.31798080      -1.49040457       0.00000000
Si       0.31418523      -2.23677990      -2.86972007       0.00000000
Si      -0.33124086       2.79898038       2.35091273       0.00000000
Si      -3.35883510       1.47699801       0.97771507       0.00000000
Si       0.41559048      -0.01757691      -3.78069184       0.00000000
