10
Lattice="16.28999089631971 0.0 0.0 0.0 16.28999089631971 0.0 0.0 0.0 34.56409401068381" Properties=species:S:1:pos:R:3:initial_magmoms:R:1 pbc="T T T"
Si      -1.37160171       1.31893614      -1.36949930       0.00000000
Si       1.37453391       1.25889120       1.44903132       0.00000000
Si      -1.26255645      -1.41449328       1.40814198       0.00000000
Si       1.33990137      -1.41263622      -1.38446556       0.00000000
Si      -1.09069695       0.93144591       3.00472750       0.00000000
Si       0.44927820      -1.61435529       3.10472148       0.00000000
Si       2.53034199      -0.54079542       2.58304532       0.00000000
Si       2.65020381       2.59962336      -0.06010699       0.00000000
Si      -2.60630226       2.73642678       0.18996437       0.00000000
Si      -0.00819387       2.65694787      -2.75171819       0.00000000
