10
Lattice="16.28999089631971 0.0 0.0 0.0 16.28999089631971 0.0 0.0 0.0 34.56409401068381" Properties=species:S:1:pos:R:3:initial_magmoms:R:1 pbc="T T T"
Si       1.88415027      -1.19088045       0.57673679       0.00000000
Si      -1.04967873      -1.11920445      -1.75682475       0.00000000
Si      -1.07696448       0.63759060       1.98750564       0.00000000
Si       0.18925722       2.05651476      -1.12115614       0.00000000
Si      -2.15453169       2.53143342      -1.11434701       0.00000000
Si      -2.32054308       0.71910576      -2.62348533       0.00000000
Si      -2.80220580       2.02639455       1.11718127       0.00000000
Si      -2.44942956      -2.61933426      -0.63117527       0.00000000
Si       3.45256776       0.51821748       1.09588978       0.00000000
Si       2.21679207      -2.64476295      -1.29373476       0.00000000
