10
Lattice="16.28999089631971 0.0 0.0 0.0 16.28999089631971 0.0 0.0 0.0 34.56409401068381" Properties=species:S:1:pos:R:3:initial_magmoms:R:1 pbc="T T T"
Si       1.34907264      -1.30160358       1.41858380       0.00000000
Si      -1.24183557      -1.71082467      -1.14377697       0.00000000
Si      -1.37986074       1.40500551       1.42653700       0.00000000
Si       1.09483461       1.65731921      -1.47390854       0.00000000
Si      -0.87711876       3.22630685      -1.19678381       0.00000000
Si       2.69325828      -2.73554712      -0.05443848       0.00000000
Si      -0.02104668      -2.64738564       2.78775819       0.00000000
Si       2.70959715       2.76615670       0.03639601       0.00000000
Si       2.69506647       0.06516000       2.79311563       0.00000000
Si      -2.86884819       2.64663371       0.09705257       0.00000000
