10
Lattice="16.28999089631971 0.0 0.0 0.0 16.28999089631971 0.0 0.0 0.0 34.56409401068381" Properties=species:S:1:pos:R:3:initial_magmoms:R:1 pbc="T T T"
Si       1.35729029       1.35734796       1.35857704       0.00000000
Si      -1.35788196      -1.35760860       1.35864617       0.00000000
Si       1.35871730      -1.35946566      -1.35850791       0.00000000
Si      -1.36083045       1.36163223      -1.35902637       0.00000000
Si       2.71438087      -2.71510317       0.00241949       0.00000000
Si       2.71403878       0.00024435       2.71611715       0.00000000
Si      -0.00028013       2.71472850       2.71611715       0.00000000
Si      -0.00043450      -2.71515204       2.71580608       0.00000000
Si      -2.71532766       0.00022806       2.71566782       0.00000000
Si      -2.71583265      -2.71520091       0.00217754       0.00000000
