10
Lattice="16.28999089631971 0.0 0.0 0.0 16.28999089631971 0.0 0.0 0.0 34.56409401068381" Properties=species:S:1:pos:R:3:initial_magmoms:R:1 pbc="T T T"
Si      -1.34245890      -1.35547528      -1.37437284       0.00000000
Si       1.37616291       1.35405901      -1.37475304       0.00000000
Si       1.41012756      -1.34394732       1.37299027       0.00000000
Si      -1.29525048       1.50187447       1.40596444       0.00000000
Si       2.33539956       0.42429097       2.60647979       0.00000000
Si       0.66323106       2.20493458       2.78507256       0.00000000
Si      -2.68170867       2.72015470      -0.03124596       0.00000000
Si      -2.70508482      -2.71020544       0.00456246       0.00000000
Si      -2.69731449      -0.00358543      -2.73298444       0.00000000
Si       0.01723482       2.71298710      -2.73180926       0.00000000
