10
Lattice="16.28999089631971 0.0 0.0 0.0 16.28999089631971 0.0 0.0 0.0 34.56409401068381" Properties=species:S:1:pos:R:3:initial_magmoms:R:1 pbc="T T T"
Si       0.92527200       1.76823829       1.23348951       0.00000000
Si       1.33020882      -1.37950189      -1.37029427       0.00000000
Si      -1.19267235      -1.46557825       1.43869665       0.00000000
Si      -1.41012756       1.34394732      -1.37299027       0.00000000
Si      -1.55000979       0.21062595       3.18186858       0.00000000
Si       2.67139710       2.67824656      -0.05160422       0.00000000
Si      -2.70145215      -2.67745651       0.00158995       0.00000000
Si       2.58714522      -2.78470987       0.16497451       0.00000000
Si       2.68173226      -0.01648322      -2.74857286       0.00000000
Si      -0.03396465       2.69800633      -2.74774332       0.00000000
