10
Lattice="16.28999089631971 0.0 0.0 0.0 16.28999089631971 0.0 0.0 0.0 34.56409401068381" Properties=species:S:1:pos:R:3:initial_magmoms:R:1 pbc="T T T"
Si      -0.09283671       1.92103083       1.36331232       0.00000000
Si       2.02944797      -0.33137118      -1.19488140       0.00000000
Si      -1.98309573      -0.07315839      -1.32207733       0.00000000
Si      -0.83266335      -1.74527802       1.41847665       0.00000000
Si       1.03076834      -1.44262285      -3.05332464       0.00000000
Si      -2.04898878       2.83879314       0.51241298       0.00000000
Si       0.08876713       0.89717175       3.45343882       0.00000000
Si      -3.51386703       1.07145846       0.06549899       0.00000000
Si       0.85954904      -3.36017807       1.39998485       0.00000000
Si      -1.67992254      -0.61424703       3.31815488       0.00000000
