10
Lattice="16.28999089631971 0.0 0.0 0.0 16.28999089631971 0.0 0.0 0.0 34.56409401068381" Properties=species:S:1:pos:R:3:initial_magmoms:R:1 pbc="T T T"
Si      -1.35795069      -1.35759231      -1.35646863       0.00000000
Si       1.35744746      -1.35754344       1.35715991       0.00000000
Si      -1.35744570       1.35783666       1.35702165       0.00000000
Si       1.35788196       1.35760860      -1.35864617       0.00000000
Si       2.71312135       0.00060273       2.71452720       0.00000000
Si       0.00009774       2.71467963       2.71414700       0.00000000
Si      -2.71454931      -2.71463402       0.00003456       0.00000000
Si       2.71506637      -2.71434569      -0.00013826       0.00000000
Si      -2.71474479       0.00109143       2.71514936       0.00000000
Si       2.71517226       2.71495656      -0.00006913       0.00000000
