10
Lattice="16.28999089631971 0.0 0.0 0.0 16.28999089631971 0.0 0.0 0.0 34.56409401068381" Properties=species:S:1:pos:R:3:initial_magmoms:R:1 pbc="T T T"
Si       1.95615207      -0.91776231       0.85089934       0.00000000
Si      -1.46487825      -1.76733468      -0.44691399       0.00000000
Si      -0.86465691       1.26504882       1.80673533       0.00000000
Si       0.72003429       0.58182993      -2.25758963       0.00000000
Si       0.06589305      -2.91195153      -1.83449031       0.00000000
Si      -0.13325220       3.31350003       0.99527364       0.00000000
Si       2.04898878      -2.83879314      -0.51241298       0.00000000
Si      -1.65648123      -2.59633278       1.78665358       0.00000000
Si       3.36420007       0.97707420       0.79729040       0.00000000
Si      -0.81824670       2.20581261      -2.94427487       0.00000000
