10
Lattice="16.28999089631971 0.0 0.0 0.0 16.28999089631971 0.0 0.0 0.0 34.56409401068381" Properties=species:S:1:pos:R:3:initial_magmoms:R:1 pbc="T T T"
Si      -0.74332899      -2.00867103       0.91609072       0.00000000
Si      -1.57209903       1.71795969      -0.34024018       0.00000000
Si       2.00079874       0.74934000       1.01978651       0.00000000
Si      -2.01567573      -0.60300693       2.39857319       0.00000000
Si       0.69427684       2.11996431       2.41404063       0.00000000
Si      -3.37841568       0.66823209       0.92144470       0.00000000
Si      -0.60984873       3.50464689       0.98608305       0.00000000
Si      -1.46759868       1.84570587      -2.86926179       0.00000000
Si      -0.66569085       0.75904884       3.77411429       0.00000000
Si      -2.60007948      -2.98496331      -0.44331037       0.00000000
