10
Lattice="16.28999089631971 0.0 0.0 0.0 16.28999089631971 0.0 0.0 0.0 34.56409401068381" Properties=species:S:1:pos:R:3:initial_magmoms:R:1 pbc="T T T"
Si      -1.35746199       1.35721764       1.35671058       0.00000000
Si      -1.35734796      -1.35729909      -1.35778206       0.00000000
Si       1.35782037       1.35770634      -1.35729817       0.00000000
Si       1.36070370      -1.35839052       1.35591560       0.00000000
Si       2.70251100      -0.00091224       2.70540228       0.00000000
Si      -2.71220355      -2.71438641      -0.00024195       0.00000000
Si      -0.00008145      -2.71458189      -2.71452720       0.00000000
Si      -2.71371852       2.71564074      -0.00013826       0.00000000
Si       2.71469592       0.00092853      -2.71490741       0.00000000
Si       0.00045612       2.71497285      -2.71490741       0.00000000
