10
Lattice="16.28999089631971 0.0 0.0 0.0 16.28999089631971 0.0 0.0 0.0 34.56409401068381" Properties=species:S:1:pos:R:3:initial_magmoms:R:1 pbc="T T T"
Si      -0.73140471      -2.04845121       0.81146169       0.00000000
Si      -0.58570695       0.52805664      -2.22741516       0.00000000
Si      -0.82616364       1.74666267       1.36656135       0.00000000
Si       2.36531616      -0.19966653       0.14475451       0.00000000
Si       0.13325220      -3.31350003      -0.99527364       0.00000000
Si       1.30872231       1.94784417      -2.73495460       0.00000000
Si       2.75074636       0.93009384       2.24583783       0.00000000
Si       1.04949954       2.61848718       2.45595307       0.00000000
Si       3.23501222       1.00172097      -1.69903355       0.00000000
Si      -1.82610900       0.93105495       3.30958298       0.00000000
