10
Lattice="16.28999089631971 0.0 0.0 0.0 16.28999089631971 0.0 0.0 0.0 34.56409401068381" Properties=species:S:1:pos:R:3:initial_magmoms:R:1 pbc="T T T"
Si       1.35687555      -1.34789976      -1.34934842       0.00000000
Si      -1.29747081      -1.38192957       1.39915531       0.00000000
Si      -1.36261289       1.36145304      -1.36082371       0.00000000
Si       1.35496962       1.45314945       1.29653446       0.00000000
Si      -0.30924936       2.61001638       2.51595637       0.00000000
Si      -0.00376299      -2.70591561      -2.71013756       0.00000000
Si       2.68939755      -2.72834694       0.06245735       0.00000000
Si       2.70936909       0.01107720      -2.71193490       0.00000000
Si      -0.00408879       2.72186352      -2.71158925       0.00000000
Si      -2.72146909       0.00964368      -2.71663562       0.00000000
