10
Lattice="16.28999089631971 0.0 0.0 0.0 16.28999089631971 0.0 0.0 0.0 34.56409401068381" Properties=species:S:1:pos:R:3:initial_magmoms:R:1 pbc="T T T"
Si       0.94460823       1.20013317      -1.83041175       0.00000000
Si      -1.07264763      -1.93684842      -0.97391302       0.00000000
Si       1.89105723      -0.73990809       1.38059438       0.00000000
Si      -1.45684728       1.80911853       1.13912948       0.00000000
Si      -1.85042997      -0.95679315      -2.94804235       0.00000000
Si      -0.98445357       2.36371388      -2.55062418       0.00000000
Si       3.11192757      -2.07557406      -0.31601969       0.00000000
Si       3.22421454       1.19926980       1.79546743       0.00000000
Si      -2.92801347      -2.62858698       0.32905036       0.00000000
Si      -1.46440584       3.64355728      -0.59875414       0.00000000
