10
Lattice="16.28999089631971 0.0 0.0 0.0 16.28999089631971 0.0 0.0 0.0 34.56409401068381" Properties=species:S:1:pos:R:3:initial_magmoms:R:1 pbc="T T T"
Si       1.11272103      -0.24565320       2.09441245       0.00000000
Si      -1.17783216       2.06788518       0.20026447       0.00000000
Si      -1.56791250      -1.83865230       0.14174743       0.00000000
Si       1.58661342       0.87834051      -1.61210481       0.00000000
Si       2.53555479       2.33541585       0.03058924       0.00000000
Si      -0.72953136       0.60830118       3.44711359       0.00000000
Si       0.57195819       3.68989677       0.27381691       0.00000000
Si      -2.52887752       2.20548681      -1.74991193       0.00000000
Si      -2.28071892       2.03877495       2.28337445       0.00000000
Si       3.24783504       0.91611702       1.81236928       0.00000000
