10
Lattice="16.28999089631971 0.0 0.0 0.0 16.28999089631971 0.0 0.0 0.0 34.56409401068381" Properties=species:S:1:pos:R:3:initial_magmoms:R:1 pbc="T T T"
Si      -1.55118756       1.43047377      -1.16373913       0.00000000
Si      -1.26358272      -1.87304049       0.85570375       0.00000000
Si       1.84225239      -0.85395438      -1.35270114       0.00000000
Si      -1.16165619       1.78075764       1.84164509       0.00000000
Si       1.17936342       1.74304629       2.43172363       0.00000000
Si       0.72953136      -0.60830118      -3.44711359       0.00000000
Si      -0.44830080       1.45958400      -3.24684911       0.00000000
Si      -1.10019402      -3.29893677      -1.10148916       0.00000000
Si      -3.53374802       0.17063775      -1.26003475       0.00000000
Si       2.27162421      -2.98911726      -0.39230269       0.00000000
