10
Lattice="16.28999089631971 0.0 0.0 0.0 16.28999089631971 0.0 0.0 0.0 34.56409401068381" Properties=species:S:1:pos:R:3:initial_magmoms:R:1 pbc="T T T"
Si       1.35607885      -1.35541124      -1.35726360       0.00000000
Si       1.36343053       1.33358136       1.37340504       0.00000000
Si      -1.36075987       1.35692656      -1.35646863       0.00000000
Si      -1.35152344      -1.36301867       1.37827858       0.00000000
Si      -0.01033516       2.69472978       2.69696863       0.00000000
Si       2.71243150       0.00040070      -2.71442351       0.00000000
Si       2.71417453       2.71354473       0.00418226       0.00000000
Si      -0.00243275       2.71478277      -2.71421613       0.00000000
Si      -0.00215386      -2.71502351      -2.71404331       0.00000000
Si       2.71334374      -2.71683170       0.00162451       0.00000000
