10
Lattice="16.28999089631971 0.0 0.0 0.0 16.28999089631971 0.0 0.0 0.0 34.56409401068381" Properties=species:S:1:pos:R:3:initial_magmoms:R:1 pbc="T T T"
Si      -1.35750409      -1.35765747       1.35667601       0.00000000
Si       1.35757043      -1.35738054      -1.35754012       0.00000000
Si       1.35718761       1.35853713       1.35691796       0.00000000
Si      -1.35838375       1.35874890      -1.35781663       0.00000000
Si      -2.71237597      -0.00057015       2.71300638       0.00000000
Si      -0.00125319      -2.71555929       2.71158925       0.00000000
Si       2.71431892      -2.71448415       0.00000000       0.00000000
Si      -2.71504753      -2.71450044      -0.00044933       0.00000000
Si      -2.71623670       0.00027693      -2.71383592       0.00000000
Si       2.71523116       2.71534752      -0.00003456       0.00000000
