10
Lattice="16.28999089631971 0.0 0.0 0.0 16.28999089631971 0.0 0.0 0.0 34.56409401068381" Properties=species:S:1:pos:R:3:initial_magmoms:R:1 pbc="T T T"
Si       1.35409322       1.34658027      -1.38470751       0.00000000
Si      -1.36044059      -1.36818081      -1.38263366       0.00000000
Si       1.51536422      -1.29482694       1.35636494       0.00000000
Si      -1.45383756       1.29518532       1.52721535       0.00000000
Si      -0.02021915      -2.66496255       2.52259268       0.00000000
Si      -2.71077396       2.70039330      -0.00805344       0.00000000
Si       2.72087309       2.69825931       0.00646349       0.00000000
Si      -0.00317166       2.70800073      -2.74359562       0.00000000
Si       2.72895293      -2.72274318      -0.03107314       0.00000000
Si       2.71124570      -0.00822645      -2.74366475       0.00000000
