10
Lattice="16.28999089631971 0.0 0.0 0.0 16.28999089631971 0.0 0.0 0.0 34.56409401068381" Properties=species:S:1:pos:R:3:initial_magmoms:R:1 pbc="T T T"
Si      -0.78990210      -0.38910294       2.17048806       0.00000000
Si       1.94157252       1.30831506       0.25442644       0.00000000
Si      -1.62005679       1.12695849      -1.29290522       0.00000000
Si       0.33075216      -1.98293283      -1.25070244       0.00000000
Si      -0.76867623       1.91632302       2.76668445       0.00000000
Si       0.32638644      -1.02162735      -3.40712291       0.00000000
Si      -3.51678946      -0.20082312      -0.83061021       0.00000000
Si       2.58924663       1.81335393      -1.97710185       0.00000000
Si      -1.90395891       3.20781051      -0.18910026       0.00000000
Si       3.66681384      -0.08048889       1.12475081       0.00000000
