10
Lattice="16.28999089631971 0.0 0.0 0.0 16.28999089631971 0.0 0.0 0.0 34.56409401068381" Properties=species:S:1:pos:R:3:initial_magmoms:R:1 pbc="T T T"
Si      -2.04694017       1.14135885       0.38998689       0.00000000
Si       0.65953649      -1.59022980       1.64162256       0.00000000
Si       0.27000512      -1.94051367      -1.36376166       0.00000000
Si       2.00202797       1.30443804       0.04787130       0.00000000
Si      -0.72485939       1.49271786      -2.95322697       0.00000000
Si       1.82119268      -3.37098744      -0.20002252       0.00000000
Si       2.79193007       1.69354098      -2.12261676       0.00000000
Si      -1.71255534      -3.20034969      -1.46005728       0.00000000
Si      -3.95831103       0.06372648      -0.54348612       0.00000000
Si      -2.15794023       3.37416399      -0.36700176       0.00000000
