10
Lattice="16.28999089631971 0.0 0.0 0.0 16.28999089631971 0.0 0.0 0.0 34.35334932831803" Properties=species:S:1:pos:R:3:initial_magmoms:R:1 pbc="T T T"
Si       1.60688958       0.63376245      -1.62268136       0.00000000
Si       1.70876724      -0.37755333       1.77696234       0.00000000
Si      -2.14504669       0.47627073      -1.34555274       0.00000000
Si       0.15514922      -2.57030136      -0.39406749       0.00000000
Si       2.52619944      -2.06000082       0.32453627       0.00000000
Si      -1.47784087      -2.64070674       1.54648559       0.00000000
Si       0.24296372      -1.64190168       3.17890411       0.00000000
Si      -0.55546619       3.51015195      -0.61612766       0.00000000
Si       1.69281933       2.95753162      -1.69228129       0.00000000
Si       0.78044901      -0.00772146      -3.73458905       0.00000000
