10
Lattice="16.28999089631971 0.0 0.0 0.0 16.28999089631971 0.0 0.0 0.0 34.35334932831803" Properties=species:S:1:pos:R:3:initial_magmoms:R:1 pbc="T T T"
Si      -1.01550231       1.98791757       0.64580897       0.00000000
Si       1.63202994      -0.39166047      -1.65782486       0.00000000
Si      -1.71012420      -1.00388754      -1.31573401       0.00000000
Si       0.98950347      -0.66863934       2.10383464       0.00000000
Si       1.19742903      -2.71333733      -1.77981367       0.00000000
Si       0.85584402       2.99033901       1.63765943       0.00000000
Si      -0.96775632      -3.23267231      -1.04279650       0.00000000
Si       0.61253658       0.86664429      -3.37219536       0.00000000
Si      -2.76174144       1.17672444       2.01908488       0.00000000
Si       2.22532803       1.33340166       2.60872610       0.00000000
