10
Lattice="16.28999089631971 0.0 0.0 0.0 16.28999089631971 0.0 0.0 0.0 34.35334932831803" Properties=species:S:1:pos:R:3:initial_magmoms:R:1 pbc="T T T"
Si      -0.94231134      -1.53583749       1.59001131       0.00000000
Si       1.46191347      -0.09744678      -2.01455024       0.00000000
Si      -1.44896292       2.04281487       0.07712331       0.00000000
Si       1.43870022       0.79395831       1.93464430       0.00000000
Si      -2.28933144       1.74791700      -2.09930000       0.00000000
Si       0.89845866      -3.07400608       1.65651943       0.00000000
Si       2.69773803       1.90459422      -1.50965878       0.00000000
Si      -2.32733601      -2.78365801       0.20800965       0.00000000
Si      -2.39019912       1.74684186       2.30737835       0.00000000
Si       2.97976680       2.25717498       0.81523979       0.00000000
