10
Lattice="16.28999089631971 0.0 0.0 0.0 16.28999089631971 0.0 0.0 0.0 34.35334932831803" Properties=species:S:1:pos:R:3:initial_magmoms:R:1 pbc="T T T"
Si      -0.90676656      -0.64622430       2.09861293       0.00000000
Si       2.09214099      -1.11666321       0.15112047       0.00000000
Si      -0.06703335       2.37350187       0.23051110       0.00000000
Si      -0.91750167      -0.55837233      -2.14615799       0.00000000
Si      -2.77811289      -1.64864574       1.10676247       0.00000000
Si       1.07380422      -0.17715375      -3.35982815       0.00000000
Si      -1.76961528       2.64564261       1.85284893       0.00000000
Si       2.05464141       3.06814005       0.99215964       0.00000000
Si       0.46271745      -2.30316165       3.06967960       0.00000000
Si       2.05017795      -3.15020907      -0.99920208       0.00000000
