10
Lattice="16.28999089631971 0.0 0.0 0.0 16.28999089631971 0.0 0.0 0.0 34.35334932831803" Properties=species:S:1:pos:R:3:initial_magmoms:R:1 pbc="T T T"
Si       1.29181329       1.38303729       1.34689050       0.00000000
Si      -1.34195391      -1.38600207       1.34860473       0.00000000
Si       0.99191439      -1.35392706      -1.78043203       0.00000000
Si      -1.97967483       1.52381547      -0.11649227       0.00000000
Si      -2.83698495      -0.40104351      -1.40769798       0.00000000
Si      -0.61064694       2.83470435      -1.58070155       0.00000000
Si       2.40986115      -2.63787228      -0.25806250       0.00000000
Si       1.92259467       2.29728096      -2.05608346       0.00000000
Si      -2.56751577      -2.55681324      -0.34851492       0.00000000
Si       2.51336781      -0.09353718       2.72871009       0.00000000
