10
Lattice="16.28999089631971 0.0 0.0 0.0 16.28999089631971 0.0 0.0 0.0 34.35334932831803" Properties=species:S:1:pos:R:3:initial_magmoms:R:1 pbc="T T T"
Si       1.05053607      -0.81452281       1.96545927       0.00000000
Si       0.61639943       2.29610808       0.00563395       0.00000000
Si       0.95976656      -1.29035533      -1.78678740       0.00000000
Si      -2.38269776       0.14120172       0.30849325       0.00000000
Si      -1.03388576       3.09145104      -1.40969048       0.00000000
Si       1.61749812       1.18587942       3.08386754       0.00000000
Si       3.19331127      -1.57213324      -1.00359931       0.00000000
Si      -0.37181129      -3.36081338      -1.60354654       0.00000000
Si      -3.04739492       1.88299368      -1.15983843       0.00000000
Si       0.37408894       3.02260950       2.24712254       0.00000000
