10
Lattice="16.28999089631971 0.0 0.0 0.0 16.28999089631971 0.0 0.0 0.0 34.35334932831803" Properties=species:S:1:pos:R:3:initial_magmoms:R:1 pbc="T T T"
Si      -1.34557029      -1.36744776       1.36929779       0.00000000
Si       1.36792017       1.35241209       1.36682434       0.00000000
Si       1.49283189      -1.24286184      -1.37026312       0.00000000
Si      -1.71615150       0.99409725      -1.35996741       0.00000000
Si      -1.77865623      -1.10208366      -2.83364589       0.00000000
Si      -0.43639281       2.18838231      -2.95257725       0.00000000
Si       0.20101860      -2.62589913      -2.71715361       0.00000000
Si      -2.71824714       2.70008379       0.00722451       0.00000000
Si      -2.69421939      -2.72631069      -0.00027826       0.00000000
Si       2.72622924       2.70197343      -0.00574732       0.00000000
