10
Lattice="16.28999089631971 0.0 0.0 0.0 16.28999089631971 0.0 0.0 0.0 34.35334932831803" Properties=species:S:1:pos:R:3:initial_magmoms:R:1 pbc="T T T"
Si      -1.28179494       1.99378197       0.46349565       0.00000000
Si       2.26178505       0.60212727       0.73114274       0.00000000
Si       0.19508904      -0.32866704      -2.47649998       0.00000000
Si      -1.00910034      -1.42780221       1.89974128       0.00000000
Si       0.27438876       3.40790058      -0.60729885       0.00000000
Si       0.48627279      -0.71759079       3.51819718       0.00000000
Si       1.85021820       2.92581432       1.13895158       0.00000000
Si       2.64143979      -1.19539278       2.33939569       0.00000000
Si      -0.22129965       2.96043057       2.33853686       0.00000000
Si       2.00285550      -2.10369060      -2.65314500       0.00000000
