10
Lattice="16.28999089631971 0.0 0.0 0.0 16.28999089631971 0.0 0.0 0.0 34.35334932831803" Properties=species:S:1:pos:R:3:initial_magmoms:R:1 pbc="T T T"
Si      -0.19130976       0.04893516      -2.32029522       0.00000000
Si       1.00538622      -2.05085398       0.52488512       0.00000000
Si       1.05134031       2.03971977       0.50791455       0.00000000
Si      -2.06566064       0.32817834       1.17893890       0.00000000
Si       2.10295755      -0.14089221      -2.82690434       0.00000000
Si      -0.86964817      -3.42002753       0.13755089       0.00000000
Si      -0.65600319       3.60491184       0.16788491       0.00000000
Si      -2.68973054       2.57142537       0.90218816       0.00000000
Si       1.01333574      -2.49185524       2.81522420       0.00000000
Si      -1.43471894       1.88566524      -3.15704021       0.00000000
