10
Lattice="16.28999089631971 0.0 0.0 0.0 16.28999089631971 0.0 0.0 0.0 34.35334932831803" Properties=species:S:1:pos:R:3:initial_magmoms:R:1 pbc="T T T"
Si       1.35913986      -1.35741312       1.35441591       0.00000000
Si      -1.35780408      -1.35591444      -1.35757642       0.00000000
Si       1.35684297       1.35929966      -1.35747336       0.00000000
Si      -1.35762489       1.35953834       1.35802301       0.00000000
Si       2.70904329      -0.02169828       2.71254198       0.00000000
Si       2.71391400      -2.71265967      -0.00113366       0.00000000
Si      -0.00021177      -2.71344159      -2.71515283       0.00000000
Si       2.71353933       2.71560557      -0.00013741       0.00000000
Si      -2.71489140       0.00120546      -2.71504977       0.00000000
Si       2.71547784       0.00146610      -2.71480930       0.00000000
