10
Lattice="16.28999089631971 0.0 0.0 0.0 16.28999089631971 0.0 0.0 0.0 34.35334932831803" Properties=species:S:1:pos:R:3:initial_magmoms:R:1 pbc="T T T"
Si       1.35962856       1.34837217      -1.40010589       0.00000000
Si      -1.35808101      -1.36586763      -1.39708279       0.00000000
Si       1.18110645      -1.48879197       1.52422461       0.00000000
Si      -1.40800986       1.36645407       1.52367495       0.00000000
Si       2.70953199       2.68408701      -0.04197982       0.00000000
Si      -2.72406267       2.69210169      -0.01233286       0.00000000
Si       2.69651628      -2.72741841      -0.00652714       0.00000000
Si      -2.70943425      -2.72670165      -0.03253264       0.00000000
Si       0.00048870       2.70578529      -2.75452180       0.00000000
Si       2.71440270      -0.00687438      -2.75565546       0.00000000
