10
Lattice="16.28999089631971 0.0 0.0 0.0 16.28999089631971 0.0 0.0 0.0 34.35334932831803" Properties=species:S:1:pos:R:3:initial_magmoms:R:1 pbc="T T T"
Si      -0.56824407       2.28150314       0.15465887       0.00000000
Si      -1.55618370      -1.41411861       1.07079450       0.00000000
Si       1.57582944      -0.48208626       1.74625043       0.00000000
Si       1.51560531       0.28005768      -2.24475216       0.00000000
Si      -0.49568841      -0.44747001       2.94583570       0.00000000
Si      -0.21375738       2.11345550      -2.30466443       0.00000000
Si       2.81342961       1.47789626       1.19714619       0.00000000
Si      -0.27438876      -3.40790058       0.60729885       0.00000000
Si       1.14904773       3.05218304       1.72089764       0.00000000
Si       1.98739629      -2.80577331       1.33844159       0.00000000
