10
Lattice="16.28999089631971 0.0 0.0 0.0 16.28999089631971 0.0 0.0 0.0 34.35334932831803" Properties=species:S:1:pos:R:3:initial_magmoms:R:1 pbc="T T T"
Si       1.35716877       1.35729909       1.39032892       0.00000000
Si      -1.35716877      -1.36018894       1.39342072       0.00000000
Si      -1.47312099       1.36764324      -1.42254207       0.00000000
Si       1.39979970      -1.41551303      -1.45167716       0.00000000
Si      -2.69861769      -2.71468902       0.02483405       0.00000000
Si       2.71326240       2.70501966       0.01579224       0.00000000
Si       2.71283886      -2.72392325       0.01995931       0.00000000
Si      -2.72464911       2.71412577       0.03684742       0.00000000
Si       2.71479366      -0.00008145       2.75085973       0.00000000
Si       0.00014661       2.71466334       2.75116891       0.00000000
