10
Lattice="16.28999089631971 0.0 0.0 0.0 16.28999089631971 0.0 0.0 0.0 34.35334932831803" Properties=species:S:1:pos:R:3:initial_magmoms:R:1 pbc="T T T"
Si      -0.68289309      -2.21733453      -0.27190691       0.00000000
Si      -1.76055804       1.34350146      -0.80160150       0.00000000
Si       2.24458281      -0.25295112      -0.74230759       0.00000000
Si       0.49899528       1.02208347       2.10355981       0.00000000
Si       2.87168265      -1.96683994       0.85958999       0.00000000
Si       3.10997277       1.91770767      -0.53848905       0.00000000
Si       1.04793570      -3.51592676       0.68060894       0.00000000
Si       2.39397840       2.45060244       1.62893368       0.00000000
Si      -1.71859500       3.37704732       0.34872104       0.00000000
Si      -1.18449477       2.66256792       2.49882967       0.00000000
