10
Lattice="16.28999089631971 0.0 0.0 0.0 16.28999089631971 0.0 0.0 0.0 34.35334932831803" Properties=species:S:1:pos:R:3:initial_magmoms:R:1 pbc="T T T"
Si       1.42234506       1.23270991       1.36001551       0.00000000
Si       1.45767807       0.55103531      -1.74422358       0.00000000
Si      -2.41774551      -0.36107274       0.67466580       0.00000000
Si       1.96483464      -1.78596459      -1.44984957       0.00000000
Si      -1.79647749      -1.05377796      -2.54465707       0.00000000
Si      -0.39832308       0.72190764      -3.21925416       0.00000000
Si      -0.45955719       2.22294643       2.47516020       0.00000000
Si       3.11727069      -1.40047803       0.55161204       0.00000000
Si       2.30925411      -0.69038064       2.60044694       0.00000000
Si      -2.31353838      -1.23581871       2.86598993       0.00000000
