10
Lattice="16.28999089631971 0.0 0.0 0.0 16.28999089631971 0.0 0.0 0.0 34.35334932831803" Properties=species:S:1:pos:R:3:initial_magmoms:R:1 pbc="T T T"
Si      -1.34677575      -1.35622395       1.35739778       0.00000000
Si       1.25152812      -1.34648253      -1.45938950       0.00000000
Si       1.36783872       1.35488817       1.35471822       0.00000000
Si      -1.22155452       1.47657447      -1.38181959       0.00000000
Si       2.15679600       0.52474977      -2.60315089       0.00000000
Si       0.53587584       2.33899965      -2.64161808       0.00000000
Si      -2.51336781       0.09353718      -2.72871009       0.00000000
Si      -2.70606222      -0.00133578       2.71569562       0.00000000
Si       0.00749340       2.71256193       2.71442454       0.00000000
Si       0.01000206      -2.71433754       2.71459631       0.00000000
