10
Lattice="16.28999089631971 0.0 0.0 0.0 16.28999089631971 0.0 0.0 0.0 34.35334932831803" Properties=species:S:1:pos:R:3:initial_magmoms:R:1 pbc="T T T"
Si      -1.35666378      -1.35676152      -1.35712982       0.00000000
Si      -1.35692442       1.35713619       1.35737030       0.00000000
Si       1.35759231      -1.35752715       1.35798866       0.00000000
Si       1.35812988       1.35811359      -1.35740465       0.00000000
Si      -2.71344159       0.00135207      -2.71432835       0.00000000
Si      -0.00112401       2.71464705       2.71425965       0.00000000
Si      -2.71487511       2.71412577       0.00048095       0.00000000
Si      -2.71484253      -0.00083079       2.71453447       0.00000000
Si       0.00117288       2.71246419      -2.71700792       0.00000000
Si      -2.71440270      -2.71523512      -0.00013741       0.00000000
