10
Lattice="16.28999089631971 0.0 0.0 0.0 16.28999089631971 0.0 0.0 0.0 34.35334932831803" Properties=species:S:1:pos:R:3:initial_magmoms:R:1 pbc="T T T"
Si      -1.35806472       1.35713619      -1.35987809       0.00000000
Si       1.35886293      -1.35915615      -1.35915667       0.00000000
Si      -1.36686132      -1.35524655       1.37732960       0.00000000
Si       1.36317978       1.37700999       1.38543700       0.00000000
Si       2.71637379       2.71085148       0.00000000       0.00000000
Si      -2.71285515       2.71503801       0.00216426       0.00000000
Si      -2.71384884      -2.71445157      -0.00219862       0.00000000
Si      -2.71386513      -0.00037467      -2.71676744       0.00000000
Si       0.00079821       2.71453302      -2.71652697       0.00000000
Si       0.00065160      -2.71503801      -2.71614908       0.00000000
