10
Lattice="16.28999089631971 0.0 0.0 0.0 16.28999089631971 0.0 0.0 0.0 34.35334932831803" Properties=species:S:1:pos:R:3:initial_magmoms:R:1 pbc="T T T"
Si      -0.62514504      -0.28904976      -2.24265660       0.00000000
Si      -1.99130589      -0.38121858       1.21367016       0.00000000
Si       1.11563694       2.05773651       0.33820891       0.00000000
Si       1.23621552      -2.09952036       0.23995828       0.00000000
Si      -1.39777974      -2.46356928      -1.76177815       0.00000000
Si      -2.22387822      -2.59276527       0.44858629       0.00000000
Si       2.35064700       1.93971546      -1.64772497       0.00000000
Si      -1.07380422       0.17715375       3.35982815       0.00000000
Si       2.90206350      -0.30840228      -2.13557715       0.00000000
Si      -0.53546859       3.58510320      -0.24140112       0.00000000
