10
Lattice="16.28999089631971 0.0 0.0 0.0 16.28999089631971 0.0 0.0 0.0 34.35334932831803" Properties=species:S:1:pos:R:3:initial_magmoms:R:1 pbc="T T T"
Si       1.56094038       1.57770279      -0.84626088       0.00000000
Si      -0.31382685       0.42922521       2.34801602       0.00000000
Si       1.07087202      -2.15879967      -0.32319649       0.00000000
Si      -2.45100969       0.10730223      -0.67737972       0.00000000
Si       0.52753536       2.10528702      -2.83198864       0.00000000
Si       3.23993439      -1.68366924       0.48204647       0.00000000
Si      -1.93474701       2.24347509       2.30954884       0.00000000
Si      -0.69222726      -3.63009618       0.84924962       0.00000000
Si      -0.56951469       0.22674051      -3.77072879       0.00000000
Si      -3.06139599       2.29529358       0.16637336       0.00000000
