10
Lattice="16.28999089631971 0.0 0.0 0.0 16.28999089631971 0.0 0.0 0.0 34.35334932831803" Properties=species:S:1:pos:R:3:initial_magmoms:R:1 pbc="T T T"
Si      -1.23501006       0.11802105       1.98593388       0.00000000
Si       1.86022026       1.45697760       0.03504044       0.00000000
Si       0.55141650      -2.24811774      -0.48785219       0.00000000
Si      -1.55128041       0.46579626      -1.77655010       0.00000000
Si      -2.35064700      -1.93971546       1.64772497       0.00000000
Si      -2.88611559       1.64538774       1.40632385       0.00000000
Si      -0.73976148       2.52521064      -2.49941368       0.00000000
Si      -1.18666134      -2.79972972      -2.04316659       0.00000000
Si       2.60454294      -2.20962447      -1.48963077       0.00000000
Si       2.76478767       1.33975476      -2.12619868       0.00000000
