10
Lattice="16.28999089631971 0.0 0.0 0.0 16.28999089631971 0.0 0.0 0.0 34.35334932831803" Properties=species:S:1:pos:R:3:initial_magmoms:R:1 pbc="T T T"
Si       1.39839876      -1.04803344       1.55452428       0.00000000
Si      -1.06438860       1.76661792       1.39206720       0.00000000
Si      -0.04000824      -1.99897848      -1.49073007       0.00000000
Si       0.13551651       2.43190152      -0.66923797       0.00000000
Si       2.34044946       1.77062526      -1.30570283       0.00000000
Si      -0.02241504      -2.31148584       2.91631727       0.00000000
Si       2.43872703      -2.84174163       0.22401832       0.00000000
Si      -1.18710117       2.44625301      -2.61415393       0.00000000
Si       2.46477474      -2.09873844      -2.05622087       0.00000000
Si      -2.61711882       0.49744773       2.82858564       0.00000000
