10
Lattice="16.28999089631971 0.0 0.0 0.0 16.28999089631971 0.0 0.0 0.0 34.35334932831803" Properties=species:S:1:pos:R:3:initial_magmoms:R:1 pbc="T T T"
Si       1.49667633      -0.74256336       1.60753153       0.00000000
Si       0.98911251       2.10763278      -0.11106444       0.00000000
Si       1.19685888      -0.93100608      -1.94416019       0.00000000
Si      -2.12038785      -0.10829592       1.78496668       0.00000000
Si       0.68515740      -2.80197774       2.33039511       0.00000000
Si      -0.63021123      -1.87753653      -3.14999777       0.00000000
Si       3.65673033      -0.71131914       0.50904821       0.00000000
Si       1.66803084       2.64517020       2.10307887       0.00000000
Si       1.43842329       0.75046401       3.42942807       0.00000000
Si      -0.56769021       3.73816585      -0.74364737       0.00000000
