10
Lattice="16.28999089631971 0.0 0.0 0.0 16.28999089631971 0.0 0.0 0.0 34.35334932831803" Properties=species:S:1:pos:R:3:initial_magmoms:R:1 pbc="T T T"
Si      -1.35781559       1.35759231      -1.36379438       0.00000000
Si       1.35782745      -1.35881406      -1.36266072       0.00000000
Si       1.37106959       1.35179307       1.36214542       0.00000000
Si      -1.36983761      -1.36661697       1.38203602       0.00000000
Si      -2.71478888       2.71002069      -0.00329792       0.00000000
Si       2.71366532       2.71130760      -0.00556525       0.00000000
Si       2.71232954      -2.71534752      -0.00316051       0.00000000
Si      -2.71174265      -2.71748151      -0.00425982       0.00000000
Si      -0.00011656       2.71355562      -2.72003101       0.00000000
Si       2.71446353      -0.00060273      -2.71930959       0.00000000
