10
Lattice="16.28999089631971 0.0 0.0 0.0 16.28999089631971 0.0 0.0 0.0 34.35334932831803" Properties=species:S:1:pos:R:3:initial_magmoms:R:1 pbc="T T T"
Si       1.04807255       1.83036558      -1.13922641       0.00000000
Si      -1.81156203      -1.05790748      -1.23613726       0.00000000
Si       1.67783972      -1.82523164       0.18313781       0.00000000
Si      -1.59575211      -1.54475042       1.29742367       0.00000000
Si      -0.45488196       1.71091101       2.80127673       0.00000000
Si      -0.34665120      -2.28672734      -2.60948187       0.00000000
Si       2.38794363       0.44977667      -2.59075929       0.00000000
Si       1.03064853      -0.49491789       3.40915959       0.00000000
Si       0.95804748      -3.67189862      -1.13719956       0.00000000
Si       3.68214992      -1.00281470      -1.10769001       0.00000000
