10
Lattice="16.28999089631971 0.0 0.0 0.0 16.28999089631971 0.0 0.0 0.0 34.35334932831803" Properties=species:S:1:pos:R:3:initial_magmoms:R:1 pbc="T T T"
Si      -1.86408099      -0.23213250       1.52827831       0.00000000
Si      -0.69146163       2.41380333       0.47806148       0.00000000
Si       1.48553049      -2.20582890       0.60788286       0.00000000
Si       1.50483601       2.50789437       1.44177652       0.00000000
Si       0.45488196      -1.71091101      -2.80127673       0.00000000
Si       3.34007621      -0.93947688       1.10483869       0.00000000
Si      -1.14087015      -3.25566143      -1.50385306       0.00000000
Si       2.21806662       1.96669170      -2.39085704       0.00000000
Si       3.58667423       1.36158336       1.65074806       0.00000000
Si       1.50295451       0.11945457      -3.94050314       0.00000000
