10
Lattice="16.28999089631971 0.0 0.0 0.0 16.28999089631971 0.0 0.0 0.0 34.35334932831803" Properties=species:S:1:pos:R:3:initial_magmoms:R:1 pbc="T T T"
Si      -0.62406990       2.24324703      -0.27675074       0.00000000
Si       2.06566064      -0.32817834      -1.17893890       0.00000000
Si      -1.74583188      -1.63576035      -0.23686648       0.00000000
Si      -0.07468965      -0.06343326       2.41524793       0.00000000
Si      -0.29558205      -3.25141102       0.76346926       0.00000000
Si       3.11700095       1.71154143      -0.67102435       0.00000000
Si       0.83071085      -2.26741324       2.71243892       0.00000000
Si       0.88065925       1.99252764       2.94102623       0.00000000
Si      -2.44392354       2.12827221      -1.71972963       0.00000000
Si       1.40965745       3.27673350      -1.01105399       0.00000000
