10
Lattice="16.28999089631971 0.0 0.0 0.0 16.28999089631971 0.0 0.0 0.0 34.35334932831803" Properties=species:S:1:pos:R:3:initial_magmoms:R:1 pbc="T T T"
Si      -1.45024983       1.61565067      -1.00033574       0.00000000
Si       1.49159452      -0.49679485      -1.80485728       0.00000000
Si      -0.46328760      -2.04988345       1.21954458       0.00000000
Si       1.12629290       0.98399778       1.94896966       0.00000000
Si       0.29558205       3.25141102      -0.76346926       0.00000000
Si       3.37457843       0.43137744       0.87281603       0.00000000
Si       0.22089240       3.18797776       1.65177867       0.00000000
Si       2.46220811      -2.53387564      -1.16949172       0.00000000
Si       3.36662891       0.87237870      -1.41752305       0.00000000
Si      -1.67063724       0.96224085      -3.25254258       0.00000000
