10
Lattice="16.28999089631971 0.0 0.0 0.0 16.28999089631971 0.0 0.0 0.0 34.35334932831803" Properties=species:S:1:pos:R:3:initial_magmoms:R:1 pbc="T T T"
Si       1.35873261      -1.35290079      -1.35795430       0.00000000
Si      -1.34259574      -1.35951453       1.36771066       0.00000000
Si      -1.35653998       1.35871632      -1.35754206       0.00000000
Si       1.36368477       1.35622395       1.36537463       0.00000000
Si      -2.59189441       0.06496452       2.73679546       0.00000000
Si      -2.71366532      -2.71130760       0.00556525       0.00000000
Si       0.00079821      -2.71191033      -2.71374435       0.00000000
Si      -2.71378188       0.00224802      -2.71446577       0.00000000
Si       2.71656927      -2.71251306       0.00814175       0.00000000
Si       2.71595025       0.00267156      -2.71415659       0.00000000
