10
Lattice="16.28999089631971 0.0 0.0 0.0 16.28999089631971 0.0 0.0 0.0 34.35334932831803" Properties=species:S:1:pos:R:3:initial_magmoms:R:1 pbc="T T T"
Si       1.35314907      -1.35977517      -1.35434720       0.00000000
Si       1.35558279       1.35716877       1.35785124       0.00000000
Si      -1.35925389      -1.35759231       1.35754206       0.00000000
Si      -1.35977517       1.35624024      -1.36087434       0.00000000
Si       0.02896967      -2.71787247      -2.70336276       0.00000000
Si       2.71364426      -2.71352304       0.00085883       0.00000000
Si       2.71289492       0.00024435       2.71577120       0.00000000
Si      -0.00168518       2.71440270       2.71504977       0.00000000
Si      -0.00199582      -2.71523349       2.71525589       0.00000000
Si      -2.71689507      -2.71412577      -0.00006871       0.00000000
