10
Lattice="16.28999089631971 0.0 0.0 0.0 16.28999089631971 0.0 0.0 0.0 34.35334932831803" Properties=species:S:1:pos:R:3:initial_magmoms:R:1 pbc="T T T"
Si       1.35319401       1.33384149      -1.38543700       0.00000000
Si      -1.36317978      -1.37700999      -1.38543700       0.00000000
Si       1.32701598      -1.34478837       1.48489000       0.00000000
Si      -1.30416111       1.45173222       1.51512097       0.00000000
Si      -0.47877939      -2.07024723       3.01131322       0.00000000
Si      -2.30653368      -0.22968900       2.94879009       0.00000000
Si       2.70171279       2.69120574      -0.00731727       0.00000000
Si      -2.73870738       2.69063559       0.00367581       0.00000000
Si      -0.00418653       2.69490357      -2.74435320       0.00000000
Si       2.69814528      -2.74279617      -0.00010306       0.00000000
