10
Lattice="16.28999089631971 0.0 0.0 0.0 16.28999089631971 0.0 0.0 0.0 34.35334932831803" Properties=species:S:1:pos:R:3:initial_magmoms:R:1 pbc="T T T"
Si       1.35769903       1.35596331      -1.35623664       0.00000000
Si      -1.35697329       1.35242838       1.36049645       0.00000000
Si      -1.35726651      -1.35863487      -1.35606487       0.00000000
Si       1.35781559      -1.35759231       1.36379438       0.00000000
Si       2.71494094       2.71243161       0.00068707       0.00000000
Si      -2.71435383       2.71349046       0.00158025       0.00000000
Si      -0.00032580       2.71489140      -2.71319469       0.00000000
Si       2.71496700      -0.00127062      -2.71343517       0.00000000
Si      -2.71510317      -0.00105885      -2.71364129       0.00000000
Si       0.00013032      -2.71603170      -2.71374435       0.00000000
