10
Lattice="16.28999089631971 0.0 0.0 0.0 16.28999089631971 0.0 0.0 0.0 34.35334932831803" Properties=species:S:1:pos:R:3:initial_magmoms:R:1 pbc="T T T"
Si      -0.71599437       0.53289477       2.16742273       0.00000000
Si      -0.86538996      -2.17065879      -0.20381854       0.00000000
Si       2.35887086      -0.03789054      -0.44882676       0.00000000
Si      -1.36475991       1.61508834      -1.17529744       0.00000000
Si      -3.10997277      -1.91770767       0.53848905       0.00000000
Si       0.18181269       3.26119284      -1.72965775       0.00000000
Si       3.18462725       1.93813533       0.53501936       0.00000000
Si      -0.39791583      -2.91929832      -2.38745605       0.00000000
Si       2.60118135      -0.76439196      -2.69031535       0.00000000
Si      -2.61097749      -0.89562420       2.64204887       0.00000000
