10
Lattice="16.28999089631971 0.0 0.0 0.0 16.28999089631971 0.0 0.0 0.0 34.35334932831803" Properties=species:S:1:pos:R:3:initial_magmoms:R:1 pbc="T T T"
Si      -1.38272778       1.30947165       1.42305394       0.00000000
Si       1.34729267      -1.39209453       1.41062832       0.00000000
Si      -1.35089712      -1.49473782      -1.32283283       0.00000000
Si       1.01097369       1.73483613      -1.56766929       0.00000000
Si      -2.63228481       2.74097169       0.04331616       0.00000000
Si      -0.02621061       2.66817168       2.78502072       0.00000000
Si       2.73177828       2.73364119       0.06474923       0.00000000
Si       2.68689933      -0.04310334       2.78886829       0.00000000
Si       2.89333925      -2.61198747       0.01162862       0.00000000
Si      -0.76437567       3.61409940      -1.25579271       0.00000000
