10
Lattice="16.28999089631971 0.0 0.0 0.0 16.28999089631971 0.0 0.0 0.0 34.35334932831803" Properties=species:S:1:pos:R:3:initial_magmoms:R:1 pbc="T T T"
Si       0.90456741      -0.11722284      -2.16123912       0.00000000
Si       1.33273377      -0.31314267       1.90626842       0.00000000
Si      -1.86022026      -1.45697760      -0.03504044       0.00000000
Si      -0.59515515       2.25051237       0.44329587       0.00000000
Si      -0.14747337       0.39369672       3.65080118       0.00000000
Si      -2.65823478       2.56126041      -0.71255757       0.00000000
Si      -2.59998174       1.06823304      -2.53445412       0.00000000
Si      -0.95610897       2.40445287       2.78166096       0.00000000
Si      -0.43992774       1.09947726      -3.63293743       0.00000000
Si      -3.09523032      -1.33895655       1.95089345       0.00000000
