10
Lattice="16.28999089631971 0.0 0.0 0.0 16.28999089631971 0.0 0.0 0.0 34.35334932831803" Properties=species:S:1:pos:R:3:initial_magmoms:R:1 pbc="T T T"
Si       0.13768308      -1.50522858       1.76579750       0.00000000
Si       2.14329159      -0.54706707      -0.79710121       0.00000000
Si       0.29792781       2.04415065       1.12922958       0.00000000
Si      -1.49204997       1.38763107      -2.41095376       0.00000000
Si      -1.04656734       3.26085075      -0.34246873       0.00000000
Si       2.96442162       1.61420868      -1.24204604       0.00000000
Si      -1.91544336      -1.54372185       2.76757608       0.00000000
Si       0.82554462      -3.60735534       0.33501405       0.00000000
Si       2.57222358       2.64121173       1.02840244       0.00000000
Si      -0.60663960       2.16137349       3.29046870       0.00000000
