10
Lattice="16.28999089631971 0.0 0.0 0.0 16.28999089631971 0.0 0.0 0.0 34.35334932831803" Properties=species:S:1:pos:R:3:initial_magmoms:R:1 pbc="T T T"
Si       1.57038599      -1.73649771       0.34030447       0.00000000
Si       1.02611429       2.06560458      -0.61475353       0.00000000
Si      -1.43242857      -0.41344020      -1.92437264       0.00000000
Si      -1.45425717       0.51557850       1.97315443       0.00000000
Si      -1.91754477       1.80776646      -2.52486953       0.00000000
Si      -0.17054001       3.55947903       0.80294128       0.00000000
Si       1.52334536      -1.99327698       2.68138347       0.00000000
Si      -2.29371345       2.62418868       1.29326691       0.00000000
Si       0.74462960      -3.71252358      -0.64354165       0.00000000
Si      -2.97900117      -2.05954470      -1.37001234       0.00000000
