10
Lattice="16.28999089631971 0.0 0.0 0.0 16.28999089631971 0.0 0.0 0.0 34.35334932831803" Properties=species:S:1:pos:R:3:initial_magmoms:R:1 pbc="T T T"
Si      -1.35710361       1.35748427       1.35747336       0.00000000
Si       1.35719661      -1.35754344       1.35771383       0.00000000
Si      -1.35773892      -1.35788553      -1.35767948       0.00000000
Si       1.35892809       1.35778779      -1.35750771       0.00000000
Si      -2.71283886       0.00184077      -2.71529025       0.00000000
Si      -0.00114030      -2.71388142       2.71470624       0.00000000
Si      -2.71466334       2.71442781       0.00027483       0.00000000
Si       2.71320931      -0.00415395      -2.71618344       0.00000000
Si       2.71444898      -2.71511946       0.00072142       0.00000000
Si      -0.00190593       2.71521461       2.71443141       0.00000000
