10
Lattice="16.28999089631971 0.0 0.0 0.0 16.28999089631971 0.0 0.0 0.0 34.35334932831803" Properties=species:S:1:pos:R:3:initial_magmoms:R:1 pbc="T T T"
Si      -0.73614510       1.36496486       1.71976398       0.00000000
Si      -0.97567326       0.65068776      -2.00128984       0.00000000
Si      -1.42125363      -1.92935502       0.34782786       0.00000000
Si       2.42290944      -0.10673208      -0.15854080       0.00000000
Si       2.13490224      -1.35791811      -2.20493661       0.00000000
Si      -0.06421518      -1.11027753      -3.19070652       0.00000000
Si      -0.31438071      -0.15858315       3.48329416       0.00000000
Si      -1.78220745      -1.77541452       2.68619295       0.00000000
Si       0.41202297       3.39528302       1.75349899       0.00000000
Si       3.13282668      -1.26832311       1.84549731       0.00000000
