10
Lattice="16.28999089631971 0.0 0.0 0.0 16.28999089631971 0.0 0.0 0.0 34.35334932831803" Properties=species:S:1:pos:R:3:initial_magmoms:R:1 pbc="T T T"
Si      -2.13547402       0.28206135      -0.79462777       0.00000000
Si       0.26946918      -2.15576973       1.05918306       0.00000000
Si       0.94123620       0.29597301      -2.23025504       0.00000000
Si       0.85731012       1.92485898       1.29120571       0.00000000
Si      -2.66660165       0.42886683       1.48570765       0.00000000
Si       2.83698495       0.40104351       1.40769798       0.00000000
Si       1.49503104      -0.98495856       2.75630271       0.00000000
Si      -1.22543154       1.81442907       2.71869608       0.00000000
Si       1.44788778      -3.28267935      -0.71736704       0.00000000
Si       2.39019912      -1.74684186      -2.30737835       0.00000000
