10
Lattice="16.28999089631971 0.0 0.0 0.0 16.28999089631971 0.0 0.0 0.0 34.35334932831803" Properties=species:S:1:pos:R:3:initial_magmoms:R:1 pbc="T T T"
Si       1.27975869       1.19428506      -1.59260984       0.00000000
Si       1.71615150      -0.99409725       1.35996741       0.00000000
Si      -1.00209564       1.70598654       1.36719193       0.00000000
Si      -0.06250473      -2.09618091      -1.47367848       0.00000000
Si      -2.14524639      -2.20661082      -0.04618810       0.00000000
Si       1.30652316      -0.78529203      -2.93788775       0.00000000
Si      -2.35168630       0.36227331       2.73105157       0.00000000
Si       0.37058121      -2.36154501       2.72926520       0.00000000
Si      -2.30680735       3.13901784       0.00693251       0.00000000
Si       3.20898339      -2.23695909      -0.01029570       0.00000000
