10
Lattice="16.28999089631971 0.0 0.0 0.0 16.28999089631971 0.0 0.0 0.0 34.35334932831803" Properties=species:S:1:pos:R:3:initial_magmoms:R:1 pbc="T T T"
Si       1.33960667       1.34899119       1.37823997       0.00000000
Si      -1.37159735      -1.37065689       1.37191895       0.00000000
Si      -1.34729267       1.39209453      -1.41062832       0.00000000
Si       1.54604658      -1.21989294      -1.39899971       0.00000000
Si       0.10487647      -2.60545518      -2.63198814       0.00000000
Si       2.68919733       2.69270442       0.01438032       0.00000000
Si      -2.73002045       2.70156618       0.01242561       0.00000000
Si      -2.69818979      -0.10264329      -2.73346116       0.00000000
Si       2.70315786      -0.00969255       2.73165963       0.00000000
Si      -0.01162119       2.70264132       2.73423613       0.00000000
