10
Lattice="16.28999089631971 0.0 0.0 0.0 16.28999089631971 0.0 0.0 0.0 34.35334932831803" Properties=species:S:1:pos:R:3:initial_magmoms:R:1 pbc="T T T"
Si      -0.04010435      -2.32342641       0.34662549       0.00000000
Si      -1.32735874       0.77711445      -1.83192773       0.00000000
Si       2.29583767      -0.03015279      -0.75828190       0.00000000
Si      -0.93760420       0.89769303       2.06992787       0.00000000
Si      -0.21276858      -3.10912569      -1.86813618       0.00000000
Si      -1.54522120       3.11922549      -1.67933007       0.00000000
Si       3.03449143      -2.31256098      -0.86769738       0.00000000
Si      -2.16578875      -3.16763937       0.80977760       0.00000000
Si      -3.17348815      -0.01586646       2.33640695       0.00000000
Si       3.79121080       0.68005863       0.86017399       0.00000000
