10
Lattice="16.28999089631971 0.0 0.0 0.0 16.28999089631971 0.0 0.0 0.0 34.35334932831803" Properties=species:S:1:pos:R:3:initial_magmoms:R:1 pbc="T T T"
Si      -0.71979224      -1.84666698      -1.32033737       0.00000000
Si      -1.67783972       1.82523164      -0.18313781       0.00000000
Si       0.19176262      -0.74999160       2.36959230       0.00000000
Si       2.00431020       0.82241694      -1.29082782       0.00000000
Si      -3.27359183       0.28048122       1.11428586       0.00000000
Si      -2.02449092      -0.46149570      -2.79261968       0.00000000
Si      -0.64719119       1.33031375       3.22602178       0.00000000
Si       0.71010391       2.27500831      -2.77389710       0.00000000
Si      -3.48940175       0.76732416      -1.41927507       0.00000000
Si      -0.62976716       3.65559722      -1.32236421       0.00000000
