10
Lattice="16.28999089631971 0.0 0.0 0.0 16.28999089631971 0.0 0.0 0.0 34.51877397758722" Properties=species:S:1:pos:R:3:initial_magmoms:R:1 pbc="T T T"
Si       1.52888166      -1.10562185      -1.46711775       0.00000000
Si       1.60129071       1.43964504       1.14101871       0.00000000
Si      -1.33675740       1.60479306      -1.51924113       0.00000000
Si      -0.15091056      -1.89531544       2.16039320       0.00000000
Si       3.34502118      -1.82136372       0.01805333       0.00000000
Si      -2.44046096      -0.00821016      -2.93009325       0.00000000
Si      -2.98596419       1.97273529       1.40764187       0.00000000
Si       1.06228719       1.47046572       3.50493471       0.00000000
Si       0.47934954      -2.64895730      -2.91880560       0.00000000
Si       0.22628439       2.62975986      -3.00275531       0.00000000
