10
Lattice="16.28999089631971 0.0 0.0 0.0 16.28999089631971 0.0 0.0 0.0 34.51877397758722" Properties=species:S:1:pos:R:3:initial_magmoms:R:1 pbc="T T T"
Si       1.35495333      -1.35814021      -1.35600176       0.00000000
Si      -1.35840681      -1.35607138       1.35648502       0.00000000
Si       1.35635427       1.35862847       1.35672665       0.00000000
Si      -1.35889551       1.35655964      -1.36107602       0.00000000
Si       2.71485882      -2.71100842      -0.00120816       0.00000000
Si       2.71379997       0.00150645       2.71331523       0.00000000
Si      -0.00125433      -2.71337047       2.71379849       0.00000000
Si       2.71313208       2.71508374      -0.00224372       0.00000000
Si      -2.71518462       0.00046906       2.71383301       0.00000000
Si      -2.71622718      -2.71289806      -0.00103556       0.00000000
