10
Lattice="16.28999089631971 0.0 0.0 0.0 16.28999089631971 0.0 0.0 0.0 34.51877397758722" Properties=species:S:1:pos:R:3:initial_magmoms:R:1 pbc="T T T"
Si       1.35744570      -1.35712202       1.35658858       0.00000000
Si      -1.35635427      -1.35862847      -1.35672665       0.00000000
Si      -1.35731538       1.35730235       1.35717539       0.00000000
Si       1.35677781       1.35645527      -1.35897037       0.00000000
Si       0.00058644      -2.71375503       2.71214159       0.00000000
Si      -2.71422351      -0.00107351       2.71341878       0.00000000
Si       0.00013032       2.71435709       2.71438531       0.00000000
Si      -2.71476108      -2.71469985      -0.00024163       0.00000000
Si       2.71480995       2.71466660      -0.00013808       0.00000000
Si      -0.00140094      -2.71676868      -2.71272841       0.00000000
