10
Lattice="16.28999089631971 0.0 0.0 0.0 16.28999089631971 0.0 0.0 0.0 34.51877397758722" Properties=species:S:1:pos:R:3:initial_magmoms:R:1 pbc="T T T"
Si       0.91355949       0.31182318      -2.32259701       0.00000000
Si      -0.61748874      -2.31833904      -0.75734232       0.00000000
Si      -2.36121921       0.94266972       0.36562306       0.00000000
Si       0.90160263       0.74567475       2.45349227       0.00000000
Si      -2.43362826      -1.60259717      -2.24251340       0.00000000
Si      -0.81808380      -0.53282961      -3.71028701       0.00000000
Si      -0.90684801       2.06522991       3.15657105       0.00000000
Si      -2.17588788       3.21217623      -0.40027993       0.00000000
Si      -0.77889006      -3.65663978       1.20194438       0.00000000
Si       2.85684246      -1.36102950      -2.38462728       0.00000000
