10
Lattice="16.28999089631971 0.0 0.0 0.0 16.28999089631971 0.0 0.0 0.0 34.51877397758722" Properties=species:S:1:pos:R:3:initial_magmoms:R:1 pbc="T T T"
Si      -1.04953212      -1.54333545      -1.45168785       0.00000000
Si      -1.52888166       1.10562185       1.46711775       0.00000000
Si       1.61554446       1.06976756      -1.46777361       0.00000000
Si       1.81613952      -0.71574187       1.48517108       0.00000000
Si      -1.37078721      -3.22301301       0.37349334       0.00000000
Si       0.07240905       2.54526689       2.60813646       0.00000000
Si       2.43362826       1.60259717       2.24251340       0.00000000
Si      -0.47688975      -2.69976192       2.64741885       0.00000000
Si      -2.47423108      -0.21114935      -2.89191546       0.00000000
Si       2.91476970      -2.45533047      -0.11646641       0.00000000
