10
Lattice="16.28999089631971 0.0 0.0 0.0 16.28999089631971 0.0 0.0 0.0 34.51877397758722" Properties=species:S:1:pos:R:3:initial_magmoms:R:1 pbc="T T T"
Si      -1.99337472      -1.09173951      -0.42703199       0.00000000
Si      -0.41479227       0.80718579       2.15027919       0.00000000
Si       1.80845064      -1.31955516      -0.70307878       0.00000000
Si       0.52637877       2.10632958      -1.00605023       0.00000000
Si      -1.45437120      -1.12256019      -2.79094799       0.00000000
Si      -2.26079136       2.06487153       1.40229146       0.00000000
Si       1.70914680       1.79787843       2.32756771       0.00000000
Si       2.50012404       2.37500055       0.14380529       0.00000000
Si      -1.25315712       3.37403367      -0.28602272       0.00000000
Si       3.46631652       0.46426500      -0.96286722       0.00000000
