10
Lattice="16.28999089631971 0.0 0.0 0.0 16.28999089631971 0.0 0.0 0.0 34.51877397758722" Properties=species:S:1:pos:R:3:initial_magmoms:R:1 pbc="T T T"
Si      -2.00182923      -0.99478143       0.58661237       0.00000000
Si      -0.52271352       0.94799655      -2.12532210       0.00000000
Si       2.17355841      -0.85014252       0.64367194       0.00000000
Si       0.27155430       1.93823307       1.55420867       0.00000000
Si       1.73156184       1.22246676      -2.68901400       0.00000000
Si       3.30955785       0.28914750      -1.11026247       0.00000000
Si       1.61565849      -1.01639826       2.98601369       0.00000000
Si      -1.87548399      -3.14136360      -0.19399562       0.00000000
Si      -1.72488294       3.27544659       0.59765839       0.00000000
Si      -1.49986917       3.08170962      -1.74530471       0.00000000
