10
Lattice="16.28999089631971 0.0 0.0 0.0 16.28999089631971 0.0 0.0 0.0 34.51877397758722" Properties=species:S:1:pos:R:3:initial_magmoms:R:1 pbc="T T T"
Si       0.04564458      -0.78695361      -2.28911378       0.00000000
Si       0.94905540      -1.84267593       1.31740975       0.00000000
Si      -2.01598524       0.98218926       1.12082522       0.00000000
Si       1.51288488       2.02694841      -0.01905437       0.00000000
Si       1.90812915      -0.24057072       2.79156730       0.00000000
Si       2.24279091      -0.16956261      -2.81172831       0.00000000
Si      -0.78441237       2.49377094       2.52335282       0.00000000
Si       3.26265894       0.99217503       1.28523823       0.00000000
Si      -1.97825760      -0.09801693      -3.19906368       0.00000000
Si      -2.10460284       2.04856524      -2.41845569       0.00000000
