10
Lattice="16.28999089631971 0.0 0.0 0.0 16.28999089631971 0.0 0.0 0.0 34.51877397758722" Properties=species:S:1:pos:R:3:initial_magmoms:R:1 pbc="T T T"
Si      -1.35314514       1.35619137      -1.36045468       0.00000000
Si      -1.35089712      -1.36039419       1.36677162       0.00000000
Si       1.36102950      -1.35957969      -1.36042016       0.00000000
Si       1.36321236       1.36855548       1.35879778       0.00000000
Si       0.05672178      -2.70837540       2.69519286       0.00000000
Si      -2.71135647      -0.00216657      -2.71721585       0.00000000
Si       2.71443528       2.71459818      -0.00310669       0.00000000
Si      -2.71565703       2.71423980      -0.00210565       0.00000000
Si       0.00355122       2.71318095      -2.71807882       0.00000000
Si      -2.71345788      -2.71870326       0.00117364       0.00000000
