10
Lattice="16.28999089631971 0.0 0.0 0.0 16.28999089631971 0.0 0.0 0.0 34.51877397758722" Properties=species:S:1:pos:R:3:initial_magmoms:R:1 pbc="T T T"
Si       0.13848129       0.51637671      -2.28390144       0.00000000
Si      -0.28601982       1.71401751       1.65728178       0.00000000
Si      -2.17735398      -0.90033201      -0.49907271       0.00000000
Si       1.86370632      -1.33468857       0.85316649       0.00000000
Si      -0.51504093      -1.60461387      -3.15888381       0.00000000
Si      -1.52267517      -2.91377601      -1.47056963       0.00000000
Si      -2.94984207      -1.39676976       1.60363958       0.00000000
Si      -1.66252482       1.99902735      -2.69094705       0.00000000
Si      -0.62302734       0.38750652       3.68543348       0.00000000
Si       2.28361365       1.23681825      -2.77710596       0.00000000
