10
Lattice="16.28999089631971 0.0 0.0 0.0 16.28999089631971 0.0 0.0 0.0 34.51877397758722" Properties=species:S:1:pos:R:3:initial_magmoms:R:1 pbc="T T T"
Si      -0.16553898       2.01539880       1.21575190       0.00000000
Si       0.22501377      -0.19373697      -2.34296309       0.00000000
Si      -1.84049307      -1.29902976       0.81926904       0.00000000
Si       1.99643724      -1.33721352       0.95655028       0.00000000
Si       1.97175789       1.33698546      -2.65856842       0.00000000
Si       3.18148587       1.63636308      -0.67197735       0.00000000
Si       1.72488294      -3.27544659      -0.59765839       0.00000000
Si      -0.90378549       0.92339865       3.52688866       0.00000000
Si       1.20216942      -2.32745004      -2.72298049       0.00000000
Si      -1.87594011       3.34195866       0.33652372       0.00000000
