10
Lattice="16.28999089631971 0.0 0.0 0.0 16.28999089631971 0.0 0.0 0.0 34.51877397758722" Properties=species:S:1:pos:R:3:initial_magmoms:R:1 pbc="T T T"
Si      -1.27199488       1.33231023       1.42134583       0.00000000
Si       2.04244020      -0.62661114       0.98744460       0.00000000
Si       0.74831373       1.36780614      -1.80567808       0.00000000
Si      -0.85173242      -2.07639019      -0.84498554       0.00000000
Si      -1.80472023      -1.36731744      -2.88991337       0.00000000
Si       0.38204937       2.84558607       2.29801962       0.00000000
Si      -0.40589793       0.44600391      -3.66620651       0.00000000
Si       3.05531982       0.80542647      -1.97447497       0.00000000
Si      -2.43616040      -2.73357603       0.81022512       0.00000000
Si       3.61553292       1.01762001       0.28954364       0.00000000
