10
Lattice="16.28999089631971 0.0 0.0 0.0 16.28999089631971 0.0 0.0 0.0 34.51877397758722" Properties=species:S:1:pos:R:3:initial_magmoms:R:1 pbc="T T T"
Si       1.35009891       1.34752509      -1.37032706       0.00000000
Si       1.46333070      -1.23173577       1.38934691       0.00000000
Si      -1.36888128      -1.36580247      -1.36628836       0.00000000
Si      -1.31009067       1.36532943       1.46162926       0.00000000
Si      -0.09645309      -2.22306372       2.80706827       0.00000000
Si      -1.63134576      -0.31434813       3.28681046       0.00000000
Si       2.69619048       2.70490467      -0.02285144       0.00000000
Si       2.70998811      -2.71148679      -0.00538493       0.00000000
Si      -0.00628794       2.70406411      -2.72591459       0.00000000
Si      -2.69861280      -2.73367377       0.00728347       0.00000000
