10
Lattice="16.28999089631971 0.0 0.0 0.0 16.28999089631971 0.0 0.0 0.0 34.51877397758722" Properties=species:S:1:pos:R:3:initial_magmoms:R:1 pbc="T T T"
Si       1.34609157       1.35737958       1.34747561       0.00000000
Si      -1.35009891      -1.34752509       1.37032706       0.00000000
Si      -1.35638685       1.35653902      -1.35558753       0.00000000
Si       1.35842310      -1.35614250      -1.35686473       0.00000000
Si       0.11323179      -2.57926086       2.75967397       0.00000000
Si       2.71111212      -2.71296918       0.00303765       0.00000000
Si      -2.71370223      -0.00054689      -2.71189996       0.00000000
Si       0.00022806      -2.71438641      -2.71193447       0.00000000
Si       0.00052128       2.71491488      -2.71183092       0.00000000
Si      -2.71143792       2.71538729       0.00790480       0.00000000
