10
Lattice="16.28999089631971 0.0 0.0 0.0 16.28999089631971 0.0 0.0 0.0 34.51877397758722" Properties=species:S:1:pos:R:3:initial_magmoms:R:1 pbc="T T T"
Si       1.35602847      -1.35425286      -1.35731347       0.00000000
Si      -1.35731538      -1.35617508       1.35641598       0.00000000
Si      -1.35573525       1.35897696      -1.35803836       0.00000000
Si       1.35791811       1.35927018       1.35600176       0.00000000
Si       0.01754433       2.68509699      -2.70633207       0.00000000
Si       0.00864999      -2.71337643      -2.70809944       0.00000000
Si       2.70313002       0.02068830      -2.72330496       0.00000000
Si       0.00035838      -2.71347417       2.71331523       0.00000000
Si       2.71445157      -2.71277370      -0.00096653       0.00000000
Si      -2.71464705       0.00172674       2.71397108       0.00000000
