10
Lattice="16.28999089631971 0.0 0.0 0.0 16.28999089631971 0.0 0.0 0.0 34.51877397758722" Properties=species:S:1:pos:R:3:initial_magmoms:R:1 pbc="T T T"
Si      -2.19714633      -0.61739100       0.52261453       0.00000000
Si       0.99140940      -0.44440749      -2.12839427       0.00000000
Si      -0.17200611       2.36276676       0.45033218       0.00000000
Si       1.03998618      -1.89179028       1.33235638       0.00000000
Si       3.11495751       1.15372296      -0.29596413       0.00000000
Si       3.29204610      -1.15285959       0.56144817       0.00000000
Si       2.29584744      -0.37354599       2.71973572       0.00000000
Si      -2.24279091       0.16956261       2.81172831       0.00000000
Si      -0.72990603       2.19651102       2.79267393       0.00000000
Si       1.59905898       1.76507037      -2.77879738       0.00000000
