10
Lattice="16.28999089631971 0.0 0.0 0.0 16.28999089631971 0.0 0.0 0.0 34.51877397758722" Properties=species:S:1:pos:R:3:initial_magmoms:R:1 pbc="T T T"
Si      -1.35452979      -1.23274575       1.50632907       0.00000000
Si      -1.74977406       1.03477338      -1.30429260       0.00000000
Si       1.27597941      -1.53528363      -1.37723081       0.00000000
Si       1.39893633       1.60831170       1.32016577       0.00000000
Si      -3.26265894      -0.99217503      -1.28523823       0.00000000
Si      -2.31360354      -2.83485096       0.03217152       0.00000000
Si       0.01816335      -2.55280590       2.81837459       0.00000000
Si       2.72187981      -2.67470397       0.07031478       0.00000000
Si      -2.71867068       0.17549217       2.79666918       0.00000000
Si       2.71264338       0.18125883       2.80316907       0.00000000
