10
Lattice="16.28999089631971 0.0 0.0 0.0 16.28999089631971 0.0 0.0 0.0 34.51877397758722" Properties=species:S:1:pos:R:3:initial_magmoms:R:1 pbc="T T T"
Si      -1.22797278       1.28945124      -1.64247322       0.00000000
Si      -1.52498835      -1.24610355       1.42679980       0.00000000
Si       0.86771943       1.95571224       1.16276555       0.00000000
Si       1.46494341      -1.39033521      -1.62345337       0.00000000
Si       2.64616389       2.57354307      -0.26244639       0.00000000
Si      -2.78663256       0.54765351       2.44593265       0.00000000
Si      -2.54917323       2.73279411      -0.32578837       0.00000000
Si      -2.62953180      -2.84560236      -0.03220603       0.00000000
Si      -2.59165755      -0.05268186      -3.01280028       0.00000000
Si       1.48711410      -0.82148841       3.61187393       0.00000000
