10
Lattice="16.28999089631971 0.0 0.0 0.0 16.28999089631971 0.0 0.0 0.0 34.51877397758722" Properties=species:S:1:pos:R:3:initial_magmoms:R:1 pbc="T T T"
Si      -1.80445959       1.25156070       0.97118625       0.00000000
Si       1.29124314       0.12580767       2.11469031       0.00000000
Si      -0.87172677      -2.07886464      -1.05444558       0.00000000
Si       0.64220067       1.31124726      -2.19156367       0.00000000
Si      -2.36718135      -0.97958286      -2.53561248       0.00000000
Si       2.78262522      -0.67080591      -2.33761268       0.00000000
Si      -0.31118787       3.50520075      -1.17101554       0.00000000
Si      -0.16079859      -0.99810459       3.62295447       0.00000000
Si      -1.93174965       0.62046981       3.26036906       0.00000000
Si      -0.63426744       0.10627596      -3.82616660       0.00000000
