10
Lattice="16.28999089631971 0.0 0.0 0.0 16.28999089631971 0.0 0.0 0.0 34.51877397758722" Properties=species:S:1:pos:R:3:initial_magmoms:R:1 pbc="T T T"
Si      -1.63649340       0.95402385       1.44178096       0.00000000
Si      -1.25015976       0.27165204      -2.03005023       0.00000000
Si       2.01210822       1.16678754      -0.64591566       0.00000000
Si       0.65275659      -2.19467025       0.85485792       0.00000000
Si       2.22303114       0.32974218      -2.85960587       0.00000000
Si      -2.06648424      -1.95023880      -2.34458548       0.00000000
Si       2.84583042      -1.83490560       1.52621393       0.00000000
Si      -3.44101815      -0.68128038       1.23763681       0.00000000
Si       0.20188197       1.39556430      -3.53831439       0.00000000
Si      -2.85746148      -2.52736092      -0.16082306       0.00000000
