10
Lattice="16.28999089631971 0.0 0.0 0.0 16.28999089631971 0.0 0.0 0.0 34.51877397758722" Properties=species:S:1:pos:R:3:initial_magmoms:R:1 pbc="T T T"
Si      -0.88272252      -1.54406394      -1.61658209       0.00000000
Si      -1.27050597       1.42904271       1.49778080       0.00000000
Si       1.45173222      -1.26534204       1.48270989       0.00000000
Si       0.99017136       1.85557828      -1.23749671       0.00000000
Si      -2.58584202      -2.54448171      -0.12240019       0.00000000
Si      -2.10929436       1.33424874      -2.93043640       0.00000000
Si       2.71355562       2.73208617       0.15059859       0.00000000
Si      -2.49984711       2.93146925       0.14707422       0.00000000
Si       2.25435681       0.95765652      -3.02115179       0.00000000
Si       0.08985564      -2.62824489       2.86669948       0.00000000
