10
Lattice="16.28999089631971 0.0 0.0 0.0 16.28999089631971 0.0 0.0 0.0 34.51877397758722" Properties=species:S:1:pos:R:3:initial_magmoms:R:1 pbc="T T T"
Si       1.35589815       1.35718506       1.35658858       0.00000000
Si      -1.35783666       1.35786924      -1.35686473       0.00000000
Si       1.35772263      -1.35809730      -1.35700280       0.00000000
Si      -1.35816246      -1.35685926       1.35876326       0.00000000
Si       0.00001629      -2.71441899      -2.71407464       0.00000000
Si      -2.71451673       0.00316026      -2.71459242       0.00000000
Si      -0.00042354       2.71555929      -2.71397108       0.00000000
Si       2.71490769       0.00003258      -2.71473050       0.00000000
Si       2.71463076       2.71504432       0.00020711       0.00000000
Si      -2.71502172      -2.71472850       0.00006904       0.00000000
