10
Lattice="16.28999089631971 0.0 0.0 0.0 16.28999089631971 0.0 0.0 0.0 34.51877397758722" Properties=species:S:1:pos:R:3:initial_magmoms:R:1 pbc="T T T"
Si       1.55471760       1.78988004      -0.23545269       0.00000000
Si      -1.77806979       1.06663662      -1.17992139       0.00000000
Si      -1.09273320       0.07861554       2.22763580       0.00000000
Si       0.95338854      -2.19395349      -1.02054812       0.00000000
Si      -0.32133654       2.11300801      -2.64445023       0.00000000
Si      -1.49327172      -2.25364005       2.14220179       0.00000000
Si       2.26628109      -0.76385439      -2.52442839       0.00000000
Si       0.31118787      -3.50520075       1.17101554       0.00000000
Si       3.55973967       0.63895896      -1.13556474       0.00000000
Si      -2.96895024      -0.61843356      -2.58742519       0.00000000
