10
Lattice="16.28999089631971 0.0 0.0 0.0 16.28999089631971 0.0 0.0 0.0 34.51877397758722" Properties=species:S:1:pos:R:3:initial_magmoms:R:1 pbc="T T T"
Si       2.32301916      -0.14136462      -0.08539949       0.00000000
Si       0.11515401       2.22661494       0.86952840       0.00000000
Si      -1.17154422      -1.80903708       1.08520182       0.00000000
Si      -0.53888949      -0.42854103      -2.33878632       0.00000000
Si      -0.93131559       2.77894696      -1.17646951       0.00000000
Si      -2.61026073      -1.34342001      -1.77046891       0.00000000
Si       2.56608225      -0.54050220       2.50161147       0.00000000
Si       2.67882534       1.52166519      -2.15549153       0.00000000
Si      -3.02192532      -0.27510552       2.27409810       0.00000000
Si      -3.81011697       0.32827608       0.04207841       0.00000000
