10
Lattice="16.28999089631971 0.0 0.0 0.0 16.28999089631971 0.0 0.0 0.0 34.51877397758722" Properties=species:S:1:pos:R:3:initial_magmoms:R:1 pbc="T T T"
Si       0.18736758      -2.34958882      -0.15181365       0.00000000
Si       1.07779527       0.43615335      -2.10084828       0.00000000
Si       1.09573056       1.44553225       1.57564484       0.00000000
Si      -2.24616294       0.78805156      -0.35664817       0.00000000
Si       0.46325502       2.68650445      -1.88248239       0.00000000
Si      -1.79685216       2.26506586      -2.13246749       0.00000000
Si       0.05986575      -2.60627035      -2.50637506       0.00000000
Si       1.20313053       3.40797226       0.22002279       0.00000000
Si       3.60392534      -0.99139378       0.28049971       0.00000000
Si      -0.35847774       1.33158370       3.49485522       0.00000000
