10
Lattice="16.28999089631971 0.0 0.0 0.0 16.28999089631971 0.0 0.0 0.0 34.51877397758722" Properties=species:S:1:pos:R:3:initial_magmoms:R:1 pbc="T T T"
Si      -1.36044632      -1.34096022       1.37295048       0.00000000
Si      -1.35618811       1.35734796      -1.36138669       0.00000000
Si       1.36042677      -1.35448092      -1.36262936       0.00000000
Si       1.36256076       1.35830907       1.36559798       0.00000000
Si       2.71560816      -2.71065600       0.00034519       0.00000000
Si      -2.71750604      -2.71024875      -0.00421129       0.00000000
Si      -2.71290542       2.71814940      -0.00100105       0.00000000
Si      -2.71287847       0.00066789      -2.71894179       0.00000000
Si       2.71345788       2.71870326      -0.00117364       0.00000000
Si       0.00206883      -2.71358820      -2.71932150       0.00000000
