10
Lattice="16.28999089631971 0.0 0.0 0.0 16.28999089631971 0.0 0.0 0.0 34.51877397758722" Properties=species:S:1:pos:R:3:initial_magmoms:R:1 pbc="T T T"
Si       1.35449615      -1.35122292       1.35872874       0.00000000
Si      -1.35537687      -1.35483930      -1.35669213       0.00000000
Si      -1.35228177       1.36034532       1.36038564       0.00000000
Si       1.35912373       1.35969372      -1.35600176       0.00000000
Si       0.00226431      -2.71225242      -2.71366041       0.00000000
Si      -2.71303434      -2.71327869       0.00051778       0.00000000
Si      -2.71332756       0.00302994      -2.71393656       0.00000000
Si       2.71763205      -2.71070487       0.00120816       0.00000000
Si       2.71665791       0.00276930      -2.71383301       0.00000000
Si      -2.71283886       2.71803537       0.00096653       0.00000000
