10
Lattice="16.28999089631971 0.0 0.0 0.0 16.28999089631971 0.0 0.0 0.0 34.51877397758722" Properties=species:S:1:pos:R:3:initial_magmoms:R:1 pbc="T T T"
Si       0.27183123      -0.58484358       2.24865775       0.00000000
Si       1.67814693       1.19329137      -1.17588269       0.00000000
Si      -1.28850642      -1.66423527      -1.12921328       0.00000000
Si       0.65311497       2.66828571       1.69293970       0.00000000
Si       2.14373142       0.97347411       2.58897853       0.00000000
Si      -2.45247905      -0.15799671      -2.49695143       0.00000000
Si       0.27052803       2.54127258      -2.50430393       0.00000000
Si      -0.70952724       1.31370705       3.30631358       0.00000000
Si       0.27028368      -2.89406511      -2.49035834       0.00000000
Si       2.99993382      -0.19823301      -2.49909160       0.00000000
