10
Lattice="16.28999089631971 0.0 0.0 0.0 16.28999089631971 0.0 0.0 0.0 34.51877397758722" Properties=species:S:1:pos:R:3:initial_magmoms:R:1 pbc="T T T"
Si       1.81833867       0.81044379       1.38031476       0.00000000
Si      -1.79232354       1.65791475       0.37689625       0.00000000
Si      -0.91072503      -1.91754477       1.45893131       0.00000000
Si       0.46845153       0.39221433      -2.50409682       0.00000000
Si       1.84766067      -1.68298506      -1.86946881       0.00000000
Si       0.43370496       2.06329140       2.94054006       0.00000000
Si      -2.28260367      -0.68018895       2.95890750       0.00000000
Si      -0.81977796       3.43948689       1.52172100       0.00000000
Si      -3.55183902       0.63016236       1.52134129       0.00000000
Si       2.97338112       2.71280628       0.17994647       0.00000000
