10
Lattice="16.28999089631971 0.0 0.0 0.0 16.28999089631971 0.0 0.0 0.0 34.51877397758722" Properties=species:S:1:pos:R:3:initial_magmoms:R:1 pbc="T T T"
Si       1.67807104       0.95172696       1.30522258       0.00000000
Si       0.76344129       0.13527216      -2.23654165       0.00000000
Si      -1.15504245      -1.90236249       1.20036829       0.00000000
Si      -2.01552912       1.52723637      -0.13372581       0.00000000
Si       0.16008182       2.08583676       2.75044851       0.00000000
Si      -1.34842104      -0.22274946      -3.27324457       0.00000000
Si      -1.26698733       3.34168173       1.24546710       0.00000000
Si      -2.53967616      -0.64951488       2.76059359       0.00000000
Si       3.41206172       1.93591989      -0.07097064       0.00000000
Si       1.79508374      -1.77820011      -3.03896552       0.00000000
