10
Lattice="16.28999089631971 0.0 0.0 0.0 16.28999089631971 0.0 0.0 0.0 34.51877397758722" Properties=species:S:1:pos:R:3:initial_magmoms:R:1 pbc="T T T"
Si       1.35808690       1.35762576      -1.35700280       0.00000000
Si      -1.35778779      -1.35755973      -1.35745155       0.00000000
Si       1.35735558      -1.35769005       1.35790029       0.00000000
Si      -1.35806472       1.35745201       1.35748606       0.00000000
Si       2.71462329      -0.00009774       2.71428175       0.00000000
Si       2.71374200      -0.00136836      -2.71566250       0.00000000
Si       2.71454509      -2.71516833       0.00017259       0.00000000
Si       2.71445387       2.71540683       0.00013808       0.00000000
Si      -0.00166158       2.71463306       2.71535183       0.00000000
Si      -0.00109143      -2.71490769       2.71524828       0.00000000
