10
Lattice="16.28999089631971 0.0 0.0 0.0 16.28999089631971 0.0 0.0 0.0 34.51877397758722" Properties=species:S:1:pos:R:3:initial_magmoms:R:1 pbc="T T T"
Si       0.78841971      -1.86126282       1.12420806       0.00000000
Si      -1.85631066       0.95625558       1.06148741       0.00000000
Si       1.89842261       1.46660499       0.11874465       0.00000000
Si      -1.04111019      -0.33454773      -2.17212959       0.00000000
Si       1.50833412       2.35732590      -2.03146550       0.00000000
Si      -2.06325882       2.90113890      -0.46262087       0.00000000
Si       1.66426038      -1.04386320       3.14569763       0.00000000
Si      -3.63530898      -0.57262608       0.79579626       0.00000000
Si       2.45347504      -2.91038769      -0.21132405       0.00000000
Si      -2.91299409       1.18995192      -2.18155322       0.00000000
