10
Lattice="16.28999089631971 0.0 0.0 0.0 16.28999089631971 0.0 0.0 0.0 34.51877397758722" Properties=species:S:1:pos:R:3:initial_magmoms:R:1 pbc="T T T"
Si       1.85631066      -0.95625558      -1.06148741       0.00000000
Si      -1.77899832      -1.52888166      -0.26569115       0.00000000
Si       0.12750183       0.25668153       2.35456141       0.00000000
Si      -0.20694816       1.94488332      -1.52410828       0.00000000
Si       1.01792952       3.04242370       0.40552678       0.00000000
Si      -1.05668343       0.23369634      -3.24304063       0.00000000
Si       0.81520047      -1.29080331      -3.23361700       0.00000000
Si      -3.24171000      -0.61208046       1.39469732       0.00000000
Si      -0.05986575       2.60627035       2.50637506       0.00000000
Si      -1.73310939      -0.90056007       3.17196643       0.00000000
