10
Lattice="16.28999089631971 0.0 0.0 0.0 16.28999089631971 0.0 0.0 0.0 34.51877397758722" Properties=species:S:1:pos:R:3:initial_magmoms:R:1 pbc="T T T"
Si       0.74854179       1.81444536       1.37919290       0.00000000
Si      -1.77762996      -0.80055576       1.47550033       0.00000000
Si       2.01552912      -1.52723637       0.13372581       0.00000000
Si      -0.24306309       0.39913758      -2.58701096       0.00000000
Si      -2.56608225       0.54050220      -2.50161147       0.00000000
Si       2.17561094       0.55860039       2.88417432       0.00000000
Si       0.66710808      -1.74998583      -3.13951877       0.00000000
Si      -0.52414704      -2.17675125       2.89431939       0.00000000
Si       2.77897041      -1.39196421      -2.10281585       0.00000000
Si       0.86048667      -3.42959886       1.33409410       0.00000000
