10
Lattice="16.28999089631971 0.0 0.0 0.0 16.28999089631971 0.0 0.0 0.0 34.51877397758722" Properties=species:S:1:pos:R:3:initial_magmoms:R:1 pbc="T T T"
Si       1.10358234       1.33584516      -1.62500671       0.00000000
Si      -1.35229317       1.81739385       0.78678685       0.00000000
Si      -1.65404425      -1.51327584      -0.87667379       0.00000000
Si       2.07752886       0.86380983       0.96400634       0.00000000
Si       0.40933512       1.92655314       2.50589180       0.00000000
Si      -1.81254595      -2.36778408       1.30470683       0.00000000
Si       3.10713831       0.31861611      -1.22786800       0.00000000
Si      -2.60551124      -0.44782839       2.42497975       0.00000000
Si       1.54359153       3.28981437      -0.39755294       0.00000000
Si      -0.38204937      -2.84558607      -2.29801962       0.00000000
