10
Lattice="16.28999089631971 0.0 0.0 0.0 16.28999089631971 0.0 0.0 0.0 34.51877397758722" Properties=species:S:1:pos:R:3:initial_magmoms:R:1 pbc="T T T"
Si       2.00355597      -1.01722905       0.39713872       0.00000000
Si      -0.96596442      -0.43096824      -2.09104494       0.00000000
Si       0.44000919       1.95396921       1.22745377       0.00000000
Si      -1.10358234      -1.33584516       1.62500671       0.00000000
Si       0.97394652      -0.47203533       2.58901305       0.00000000
Si      -1.84104693       2.38684338       1.10304804       0.00000000
Si      -2.45587551       0.48154869       2.41179357       0.00000000
Si      -3.24168068       0.08286723      -1.61910400       0.00000000
Si      -0.73731798      -2.81362509      -2.47869099       0.00000000
Si       2.12990121      -3.16381122      -0.38346927       0.00000000
