10
Lattice="16.28999089631971 0.0 0.0 0.0 16.28999089631971 0.0 0.0 0.0 34.51877397758722" Properties=species:S:1:pos:R:3:initial_magmoms:R:1 pbc="T T T"
Si      -1.35616958       1.35387819       1.36190447       0.00000000
Si       1.33833916       1.37305152      -1.36915342       0.00000000
Si       1.35979309      -1.36119240       1.36145573       0.00000000
Si      -1.36056716      -1.35474156      -1.38941595       0.00000000
Si      -2.71163896       2.70612738       0.00217468       0.00000000
Si       2.71681525       2.71062342      -0.00196757       0.00000000
Si       0.00218938       2.71099809       2.71825141       0.00000000
Si      -2.71279555      -0.00338832       2.71825141       0.00000000
Si       2.71696186      -2.71669959      -0.00117364       0.00000000
Si      -2.71465261      -2.71958292       0.00017259       0.00000000
