10
Lattice="16.28999089631971 0.0 0.0 0.0 16.28999089631971 0.0 0.0 0.0 34.51877397758722" Properties=species:S:1:pos:R:3:initial_magmoms:R:1 pbc="T T T"
Si      -0.80925040       1.95278004       0.96051994       0.00000000
Si       2.31850194      -0.14545341      -0.14960445       0.00000000
Si      -0.72590895      -1.94013900       1.18668707       0.00000000
Si       0.41815127       3.16462572      -0.86704305       0.00000000
Si       0.24840132       1.69337808      -3.08656694       0.00000000
Si       0.37380011       2.29544019       3.12326041       0.00000000
Si       3.31574316       0.18308331       2.06356798       0.00000000
Si       0.92945364      -2.73952188       2.72501710       0.00000000
Si      -1.47272581      -3.78042030      -0.17473413       0.00000000
Si       3.29986041      -2.04400404      -1.20726028       0.00000000
