10
Lattice="16.28999089631971 0.0 0.0 0.0 16.28999089631971 0.0 0.0 0.0 34.51877397758722" Properties=species:S:1:pos:R:3:initial_magmoms:R:1 pbc="T T T"
Si      -1.03164244       1.91347227       0.80242387       0.00000000
Si       2.28105612      -0.43287417       0.12440573       0.00000000
Si      -1.04414502       0.00863370      -2.09839744       0.00000000
Si      -0.61482858      -1.90529469       1.30874553       0.00000000
Si       1.84104693      -2.38684338      -1.10304804       0.00000000
Si      -3.14350478       1.55545065      -0.23427905       0.00000000
Si      -0.07816105       3.65155011      -0.42775689       0.00000000
Si       1.14679971      -1.79613540       3.02785047       0.00000000
Si       0.22196754       1.48053294      -3.49243891       0.00000000
Si       0.73746459      -3.72268854       0.52195867       0.00000000
