10
Lattice="16.28999089631971 0.0 0.0 0.0 16.28999089631971 0.0 0.0 0.0 34.51877397758722" Properties=species:S:1:pos:R:3:initial_magmoms:R:1 pbc="T T T"
Si       1.35650088       1.34963043       1.37444515       0.00000000
Si      -1.35878148      -1.36487394       1.37596397       0.00000000
Si      -1.39736923       1.32981690      -1.39218436       0.00000000
Si       1.52194212      -1.19347056      -1.44920595       0.00000000
Si      -2.71250397      -2.70352098       0.00084916       0.00000000
Si      -2.71717919       2.70808937       0.01395595       0.00000000
Si       2.70904329       2.72227796      -0.00338975       0.00000000
Si       2.73398328      -2.70500337      -0.00965491       0.00000000
Si      -0.00001629       2.70939257       2.73458916       0.00000000
Si      -2.71443658      -0.00587982       2.73462368       0.00000000
