10
Lattice="16.28999089631971 0.0 0.0 0.0 16.28999089631971 0.0 0.0 0.0 34.51877397758722" Properties=species:S:1:pos:R:3:initial_magmoms:R:1 pbc="T T T"
Si       1.35505107      -1.35884827      -1.36349233       0.00000000
Si      -1.35971327       1.35860229      -1.36231870       0.00000000
Si       1.35697329       1.35130437       1.37895675       0.00000000
Si      -1.37345063      -1.36539685       1.38382390       0.00000000
Si      -0.20181681       2.58113421       2.74010181       0.00000000
Si       2.71143792      -2.71538729      -0.00790480       0.00000000
Si       2.71026504       2.71767699      -0.00024163       0.00000000
Si       2.71195920      -0.00047241      -2.71973572       0.00000000
Si      -2.71522439      -2.71709208      -0.00031067       0.00000000
Si      -0.00327429       2.71474479      -2.71990832       0.00000000
