10
Lattice="16.28999089631971 0.0 0.0 0.0 16.28999089631971 0.0 0.0 0.0 34.51877397758722" Properties=species:S:1:pos:R:3:initial_magmoms:R:1 pbc="T T T"
Si       1.55978379       0.99132795      -1.41772136       0.00000000
Si       0.94727979      -0.82800441       2.08735143       0.00000000
Si      -1.15325055      -1.76446764      -1.30239407       0.00000000
Si      -1.53489267       1.90871559       0.47974219       0.00000000
Si       0.47491866      -3.09035961       1.39276427       0.00000000
Si      -0.89917542       0.07998390       3.36264825       0.00000000
Si       0.09645309       2.22306372      -2.80706827       0.00000000
Si      -0.64099521       2.43196668       2.75366770       0.00000000
Si      -2.78807422      -1.13485914       2.28869955       0.00000000
Si       2.47274055      -2.87502210      -0.19489311       0.00000000
