10
Lattice="16.2900001489832 0.0 0.0 0.0 16.2900001489832 0.0 0.0 0.0 29.47023915778811" Properties=species:S:1:pos:R:3:initial_magmoms:R:1 pbc="T T T"
Si      -1.48799377       0.27715806      -1.82241012       0.00000000
Si       0.06957459       1.96216310       1.36842109       0.00000000
Si      -1.30284163      -1.29787318       1.57680515       0.00000000
Si       2.03584277      -0.68466871      -1.24078548       0.00000000
H       -2.82051579      -0.28176813      -1.36718333       0.00000000
Si      -0.70108903      -3.39863160       0.76330866       0.00000000
Si       0.71505770       1.10394073       3.50648694       0.00000000
Si      -1.30932505      -3.23099121      -1.52175474       0.00000000
Si      -1.95357827       2.52687224      -2.14705427       0.00000000
Si      -2.21374586       2.74906785       1.58543993       0.00000000
