10
Lattice="16.2900001489832 0.0 0.0 0.0 16.2900001489832 0.0 0.0 0.0 29.47023915778811" Properties=species:S:1:pos:R:3:initial_magmoms:R:1 pbc="T T T"
Si      -2.35001171       0.24185763       0.10143656       0.00000000
Si       0.90174925       1.56869443      -1.57745349       0.00000000
Si       0.25096374      -2.05017797      -1.35439325       0.00000000
Si       0.86669317       0.10881720       2.38072380       0.00000000
H       -0.67831561      -2.07257672       2.74350244       0.00000000
Si      -2.93913957      -0.95589721      -1.83723365       0.00000000
Si       3.29616750       1.26141616      -1.33246739       0.00000000
Si       1.85872160      -2.10660653       2.58232971       0.00000000
H        0.77944393      -3.12353585       2.17407848       0.00000000
Si       2.59732649      -2.62839152      -1.29837033       0.00000000
