10
Lattice="16.2900001489832 0.0 0.0 0.0 16.2900001489832 0.0 0.0 0.0 29.47023915778811" Properties=species:S:1:pos:R:3:initial_magmoms:R:1 pbc="T T T"
H        0.77260213       0.20888667       1.31045312       0.00000000
Si      -1.41143077      -1.90202042      -0.13084786       0.00000000
Si       1.66449593      -0.56884681      -1.80499321       0.00000000
Si      -1.80152741       1.92692783      -0.10305743       0.00000000
H        2.61317666      -1.10882773       1.25705305       0.00000000
Si       0.32104332       3.21242061      -0.30531168       0.00000000
Si      -1.49894065      -1.55984896      -2.49836899       0.00000000
H        1.13627638      -1.01859742       3.07480687       0.00000000
Si      -2.63520074       0.76878681      -2.11631681       0.00000000
Si       0.28012284      -0.55074861      -3.68534182       0.00000000
