10
Lattice="16.2900001489832 0.0 0.0 0.0 16.2900001489832 0.0 0.0 0.0 29.47023915778811" Properties=species:S:1:pos:R:3:initial_magmoms:R:1 pbc="T T T"
H       -1.07927767      -1.01692932      -0.40825122       0.00000000
Si       1.51884703      -0.75605149      -1.67464634       0.00000000
Si       0.46929861      -0.95479763       2.13650393       0.00000000
Si      -0.99202843       2.21542373      -0.20160591       0.00000000
H       -2.53703720       0.03402981       0.16117274       0.00000000
H        1.48667428      -2.24433848      -1.43505330       0.00000000
H       -2.31303341      -2.21612746       1.35206510       0.00000000
Si      -1.13779135      -2.76493431       2.13125823       0.00000000
Si       2.80658784       1.83536174       1.66421388       0.00000000
Si      -1.85872160       2.10660653      -2.58232971       0.00000000
