10
Lattice="16.2900001489832 0.0 0.0 0.0 16.2900001489832 0.0 0.0 0.0 29.47023915778811" Properties=species:S:1:pos:R:3:initial_magmoms:R:1 pbc="T T T"
Si       1.35511624       1.36855549       1.31546307       0.00000000
Si      -1.31659039       1.37339362      -1.37558235       0.00000000
Si       1.39230631      -1.32958981      -1.36833267       0.00000000
Si      -1.31957146      -1.29228571       1.48140998       0.00000000
Si      -2.64561005      -2.71891505       0.11393194       0.00000000
Si      -2.63231741      -0.03453480      -2.75666975       0.00000000
Si       0.00400734      -2.65453697      -2.73828032       0.00000000
Si       0.18549423      -2.64660374       2.74070277       0.00000000
Si       0.12354336       2.68949531      -2.71471886       0.00000000
Si      -2.66344760       2.76706830       0.01287849       0.00000000
