10
Lattice="16.2900001489832 0.0 0.0 0.0 16.2900001489832 0.0 0.0 0.0 29.47023915778811" Properties=species:S:1:pos:R:3:initial_magmoms:R:1 pbc="T T T"
Si      -0.95851990      -1.36436408      -1.75725142       0.00000000
Si      -1.03211812       2.13228446       0.58015113       0.00000000
Si       2.28175661      -0.28815218       1.08662666       0.00000000
Si       0.84189979       1.32013021      -2.03603988       0.00000000
Si      -1.59692500      -1.81439162       1.12729559       0.00000000
H        0.11821653       3.13252305       0.47146489       0.00000000
Si       1.12207150      -2.62959210      -2.27872730       0.00000000
Si       2.57865815       1.85418157       2.05080447       0.00000000
Si      -2.04838607      -3.21937155      -0.71580264       0.00000000
Si       3.02329371       2.00905061      -1.48883648       0.00000000
