10
Lattice="16.2900001489832 0.0 0.0 0.0 16.2900001489832 0.0 0.0 0.0 29.47023915778811" Properties=species:S:1:pos:R:3:initial_magmoms:R:1 pbc="T T T"
Si       1.30530142      -1.35151615      -1.42901190       0.00000000
Si      -1.32957352      -1.38886912       1.38907972       0.00000000
Si       1.74881297       0.72847252       1.44003377       0.00000000
Si      -1.36148563       1.43361775      -1.33880349       0.00000000
H       -0.30053421      -2.45154728       1.77684913       0.00000000
H       -0.55519578       2.88120695       1.99519413       0.00000000
Si       0.57539539       0.30263562       3.63073346       0.00000000
Si       2.70013268       2.62716977       0.17576051       0.00000000
Si       2.67512753      -2.67017537      -0.00831061       0.00000000
Si      -2.71326242       0.04699665      -2.73159647       0.00000000
