10
Lattice="16.2900001489832 0.0 0.0 0.0 16.2900001489832 0.0 0.0 0.0 29.47023915778811" Properties=species:S:1:pos:R:3:initial_magmoms:R:1 pbc="T T T"
Si      -1.03044025       1.84503800      -1.07421969       0.00000000
Si       1.42034140       1.20985831       1.49465685       0.00000000
Si       1.12653496      -1.09276579      -1.85473897       0.00000000
Si      -1.34527708      -1.43608243       1.44881590       0.00000000
H        1.67915693      -2.28661592      -0.78847625       0.00000000
Si       2.71969697       2.59025663       0.02699474       0.00000000
Si      -2.71875215       2.72303642       0.33139284       0.00000000
Si       0.84108529       3.60235434      -1.14798370       0.00000000
Si       0.04934241       2.51242301       3.01116884       0.00000000
Si      -2.42248592       1.21823137      -2.95135604       0.00000000
