10
Lattice="16.2900001489832 0.0 0.0 0.0 16.2900001489832 0.0 0.0 0.0 29.47023915778811" Properties=species:S:1:pos:R:3:initial_magmoms:R:1 pbc="T T T"
Si      -1.44042697       1.44721990      -1.20256553       0.00000000
Si       1.35193969       1.41348331       1.36336399       0.00000000
Si      -1.39838248      -1.34214940       1.39006403       0.00000000
Si       1.37099899      -1.30256470      -1.51651198       0.00000000
Si       2.69133608      -2.66251907      -0.08897360       0.00000000
Si      -0.10739997       2.71847522      -2.65337066       0.00000000
Si      -2.76719862      -2.66150909      -0.05776756       0.00000000
Si      -2.76809457       0.21061341      -2.67977600       0.00000000
Si       2.69364926       0.07512948       2.76308247       0.00000000
Si       2.76203469       2.71518464      -0.03945181       0.00000000
