10
Lattice="16.2900001489832 0.0 0.0 0.0 16.2900001489832 0.0 0.0 0.0 29.47023915778811" Properties=species:S:1:pos:R:3:initial_magmoms:R:1 pbc="T T T"
Si      -1.68831191       0.87799843       1.40561253       0.00000000
Si       1.03044025      -1.84503800       1.07421969       0.00000000
Si      -1.39204567      -0.62680663      -1.87713635       0.00000000
Si       1.87152554       1.75731635      -0.07376401       0.00000000
Si      -0.36064431       2.11460492       2.88282300       0.00000000
Si       2.45078165      -0.63517969       2.56887654       0.00000000
Si      -3.02225115       2.09114732      -0.12465911       0.00000000
Si       2.15697521      -2.93780379      -0.78051928       0.00000000
Si      -0.55783477       0.68606965      -3.62828743       0.00000000
Si       0.97238269       3.38586024       1.43201786       0.00000000
