10
Lattice="16.2900001489832 0.0 0.0 0.0 16.2900001489832 0.0 0.0 0.0 29.47023915778811" Properties=species:S:1:pos:R:3:initial_magmoms:R:1 pbc="T T T"
Si      -1.91642078      -0.01394424       1.40266550       0.00000000
Si      -0.46996650       1.60293601      -1.71460798       0.00000000
Si       1.64480132       0.96453091       1.46490665       0.00000000
Si      -0.37408356      -2.23073633      -0.88634691       0.00000000
H       -2.28944549      -1.48926439       1.54739385       0.00000000
H        2.92949589      -0.02573820      -1.97662788       0.00000000
Si       0.07739379       2.53381667       2.48375176       0.00000000
Si      -2.30382956       2.73333496      -0.73864207       0.00000000
Si      -0.92142757       0.19795608      -3.55770621       0.00000000
Si      -1.43138602       0.97686244       3.42388186       0.00000000
