10
Lattice="16.2900001489832 0.0 0.0 0.0 16.2900001489832 0.0 0.0 0.0 29.47023915778811" Properties=species:S:1:pos:R:3:initial_magmoms:R:1 pbc="T T T"
Si       1.33252201       0.55892620      -0.45522678       0.00000000
Si      -2.05226309      -0.81096508       0.48982484       0.00000000
Si      -0.81541225      -2.50191596      -0.57882497       0.00000000
Si      -0.87674410      -0.70882678       2.69900238       0.00000000
Si      -2.49662171       1.30179907      -0.81172827       0.00000000
Si       0.86693752       2.80864038      -0.77987094       0.00000000
Si       2.82051579       0.28176813       1.36718333       0.00000000
Si       1.85155400      -0.36965268      -2.58350852       0.00000000
Si       1.51119073      -2.94922308      -0.15457140       0.00000000
Si       1.51767415      -1.01610505       2.94398848       0.00000000
