10
Lattice="16.2900001489832 0.0 0.0 0.0 16.2900001489832 0.0 0.0 0.0 29.47023915778811" Properties=species:S:1:pos:R:3:initial_magmoms:R:1 pbc="T T T"
Si       0.60175261      -2.10075842      -0.81349648       0.00000000
Si       1.30284163       1.29787318      -1.57680515       0.00000000
Si      -2.39441825       0.30727827      -0.24498610       0.00000000
Si       0.60074263       0.51868989       2.33911182       0.00000000
H       -1.51767415       1.01610505      -2.94398848       0.00000000
Si       1.37241622       3.26003628      -0.20838406       0.00000000
Si      -2.56741805       2.50962113       0.55984613       0.00000000
Si      -0.00648342      -1.93311803      -3.09855989       0.00000000
Si       2.01789933       2.40181391       1.92968179       0.00000000
Si      -0.18515214       1.57503124      -3.39921527       0.00000000
