10
Lattice="16.2900001489832 0.0 0.0 0.0 16.2900001489832 0.0 0.0 0.0 29.47023915778811" Properties=species:S:1:pos:R:3:initial_magmoms:R:1 pbc="T T T"
H       -0.19399761       0.50472936      -1.41286221       0.00000000
Si      -0.53926416       1.91438453       1.27500043       0.00000000
Si      -1.39022119      -1.89164369       0.38438033       0.00000000
Si       2.09952038      -1.07396713       0.33696271       0.00000000
H       -1.71450623       2.46319137       0.49580730       0.00000000
H        1.28290267       0.41449905      -3.23061603       0.00000000
Si      -0.06594192      -3.47758923      -1.04622296       0.00000000
H       -0.55767187       1.73221346      -3.17721595       0.00000000
Si      -1.22937373      -2.05423418       2.79619523       0.00000000
Si       3.53750385      -0.46359711      -1.36906943       0.00000000
