10
Lattice="16.2900001489832 0.0 0.0 0.0 16.2900001489832 0.0 0.0 0.0 29.47023915778811" Properties=species:S:1:pos:R:3:initial_magmoms:R:1 pbc="T T T"
Si       1.75163277      -1.23036742       0.93072909       0.00000000
Si       1.36422398       1.51691178      -1.21057848       0.00000000
Si      -0.73485657      -2.08367021      -0.89592474       0.00000000
Si      -1.00600362       1.18403214       1.87843304       0.00000000
H       -2.18715895       0.81490726      -1.81816640       0.00000000
H        1.37860805      -2.70568757       1.07545744       0.00000000
H       -0.14661489      -0.15473871      -3.23453557       0.00000000
Si      -2.17284004      -2.69404022       0.81010740       0.00000000
Si       2.35665966       2.62547561       0.57817662       0.00000000
Si       2.23666752      -0.23956074       2.95194545       0.00000000
