10
Lattice="16.2900001489832 0.0 0.0 0.0 16.2900001489832 0.0 0.0 0.0 29.47023915778811" Properties=species:S:1:pos:R:3:initial_magmoms:R:1 pbc="T T T"
Si      -0.07654671       0.13988223      -1.50024146       0.00000000
Si      -1.07207749      -2.07787097       1.48700933       0.00000000
Si      -1.92419111       0.39109032       2.07122735       0.00000000
Si       1.21223665       2.03163995      -1.83434557       0.00000000
Si       0.91450432      -1.86355973      -2.23967924       0.00000000
Si      -2.43678854       0.44777952      -1.80838229       0.00000000
Si       0.58269331      -3.05100300      -0.18949364       0.00000000
H        1.35163018      -0.99743671       2.63290064       0.00000000
Si      -3.09304749       1.48664170       0.20741154       0.00000000
Si       0.21216096       3.62991702      -0.33669748       0.00000000
