10
Lattice="16.2900001489832 0.0 0.0 0.0 16.2900001489832 0.0 0.0 0.0 29.47023915778811" Properties=species:S:1:pos:R:3:initial_magmoms:R:1 pbc="T T T"
Si      -1.38254860      -1.45802995      -1.24324330       0.00000000
Si       1.34843734      -1.46941666       1.30885878       0.00000000
Si       1.41850063       1.37229242      -1.35649743       0.00000000
Si      -1.39263211       1.37838488       1.38354226       0.00000000
H       -2.45415368      -0.75813498      -2.32712922       0.00000000
Si       2.65668725       2.68440306       0.16923580       0.00000000
Si       2.61032591      -0.05844363       2.79951358       0.00000000
Si      -2.71296920       2.73833925      -0.04399612       0.00000000
Si       0.05673807       2.68559223      -2.78898681       0.00000000
Si      -0.04549797      -2.70252080       2.78852118       0.00000000
