10
Lattice="16.2900001489832 0.0 0.0 0.0 16.2900001489832 0.0 0.0 0.0 29.47023915778811" Properties=species:S:1:pos:R:3:initial_magmoms:R:1 pbc="T T T"
Si       1.31693248      -1.42695514       1.34737933       0.00000000
Si      -1.31818681      -1.38533419      -1.40138355       0.00000000
Si       1.38106621       1.38461743      -1.34404625       0.00000000
Si      -1.31587363       1.35231436       1.45067252       0.00000000
Si      -2.65758320       2.69066819       0.05095404       0.00000000
Si       2.73113256      -0.07931601      -2.61569002       0.00000000
Si       2.66162312      -0.01560582       2.69590801       0.00000000
Si       2.72570798       2.70282053       0.15244955       0.00000000
Si      -2.73103482      -2.70519399      -0.00480365       0.00000000
Si      -2.63852390      -0.02537982      -2.82892193       0.00000000
