10
Lattice="16.2900001489832 0.0 0.0 0.0 16.2900001489832 0.0 0.0 0.0 29.47023915778811" Properties=species:S:1:pos:R:3:initial_magmoms:R:1 pbc="T T T"
Si       1.07160508      -0.69989497       1.08388593       0.00000000
Si      -0.55262197       1.19385013      -1.06626272       0.00000000
Si       2.23358708      -1.77031088      -0.62927802       0.00000000
Si      -1.67915693       2.28661592       0.78847625       0.00000000
Si       1.60362019       1.80397579      -1.91023143       0.00000000
Si      -0.31856724      -2.00089583       2.41635627       0.00000000
Si       2.45415368       0.75813498       2.32712922       0.00000000
Si      -1.75902680       0.33616859      -2.98813490       0.00000000
Si       3.29698200      -0.01444109      -1.80178095       0.00000000
Si      -3.02443401       0.85053349       2.23729215       0.00000000
