10
Lattice="16.2900001489832 0.0 0.0 0.0 16.2900001489832 0.0 0.0 0.0 29.47023915778811" Properties=species:S:1:pos:R:3:initial_magmoms:R:1 pbc="T T T"
Si      -1.02903931       1.06267816      -0.38776941       0.00000000
Si       1.27879759      -1.38062638       1.84896280       0.00000000
Si       2.08505486      -1.92753056      -0.38614854       0.00000000
Si      -2.51634890      -0.21095550      -1.68024569       0.00000000
Si       0.30053421       2.45154728      -1.77684913       0.00000000
Si      -1.55266507       2.01815183       1.75474645       0.00000000
Si      -0.96679522      -1.68160043       2.59544396       0.00000000
Si       1.91484065       0.71974108       2.67460103       0.00000000
Si       0.87592960       2.75418291       1.85388433       0.00000000
Si       0.43621362      -2.91512811      -1.78062132       0.00000000
