10
Lattice="16.2900001489832 0.0 0.0 0.0 16.2900001489832 0.0 0.0 0.0 29.47023915778811" Properties=species:S:1:pos:R:3:initial_magmoms:R:1 pbc="T T T"
Si       1.31149162       1.34690608       1.38798932       0.00000000
Si      -1.31188258      -1.26972406       1.47365931       0.00000000
Si      -1.30925989       1.40322061      -1.35336179       0.00000000
Si       1.37233477      -1.40783068      -1.29362562       0.00000000
Si       2.72034857       0.00663003      -2.57619106       0.00000000
Si      -2.63609669      -2.66476709       0.03919542       0.00000000
Si      -2.67473657      -0.00938304      -2.65122523       0.00000000
Si      -2.66812283       2.75967264       0.07918653       0.00000000
Si       2.73932643      -2.68661198       0.15719426       0.00000000
Si       2.67315644       2.76939777       0.03132686       0.00000000
