10
Lattice="16.2900001489832 0.0 0.0 0.0 16.2900001489832 0.0 0.0 0.0 29.47023915778811" Properties=species:S:1:pos:R:3:initial_magmoms:R:1 pbc="T T T"
Si       1.44849704       1.76971304       0.58321603       0.00000000
Si      -0.58514658      -0.61020712       2.23446300       0.00000000
Si      -2.23711549       0.53662518      -0.66443601       0.00000000
Si       1.14959183      -1.64702327      -1.43808873       0.00000000
Si       3.16041315       0.54330408       1.71328182       0.00000000
Si      -3.53770911      -1.25242408       0.18315754       0.00000000
Si       2.33690478       2.68796405      -1.31838062       0.00000000
Si      -0.85714071       1.42288264       3.46926602       0.00000000
Si      -0.46728028      -3.40076559      -1.79797929       0.00000000
Si      -2.83886810       2.63738360       0.14906047       0.00000000
