10
Lattice="16.2900001489832 0.0 0.0 0.0 16.2900001489832 0.0 0.0 0.0 29.47023915778811" Properties=species:S:1:pos:R:3:initial_magmoms:R:1 pbc="T T T"
H       -0.56268919      -1.38549709      -0.31954580       0.00000000
Si      -1.20128977       0.71003224       1.93389603       0.00000000
Si      -0.87175936       1.49493331      -1.66654202       0.00000000
Si       2.00368448      -0.26792163       1.41695857       0.00000000
Si       0.64474192      -2.55331091       1.77387264       0.00000000
H        2.52921149      -0.34062390      -1.91011355       0.00000000
Si       2.24200575       2.16598358       1.49358119       0.00000000
Si       1.77684806      -1.83769121      -2.41393676       0.00000000
Si      -0.49844142      -1.11340522       3.32097178       0.00000000
Si       0.20268018       2.54669717       2.60908868       0.00000000
