10
Lattice="16.2900001489832 0.0 0.0 0.0 16.2900001489832 0.0 0.0 0.0 29.47023915778811" Properties=species:S:1:pos:R:3:initial_magmoms:R:1 pbc="T T T"
Si      -0.01589904       1.23312043      -1.95947620       0.00000000
Si      -0.53074449       1.06046272       1.99133353       0.00000000
Si       1.55277910      -1.76777453       0.08027693       0.00000000
Si      -2.04951008      -1.07961976      -0.46562978       0.00000000
H       -1.90973210       0.09928755       2.29699885       0.00000000
Si       0.25612767      -0.73278937      -3.35167977       0.00000000
Si      -2.66209553      -1.39777975       1.79317564       0.00000000
Si       1.96804379      -1.95919832      -2.22161398       0.00000000
Si      -2.01333813       2.53669511      -1.85615354       0.00000000
Si      -3.43049484       0.65357110      -1.44672351       0.00000000
