10
Lattice="16.2900001489832 0.0 0.0 0.0 16.2900001489832 0.0 0.0 0.0 29.47023915778811" Properties=species:S:1:pos:R:3:initial_magmoms:R:1 pbc="T T T"
Si      -0.90727156      -1.63975141      -1.44837384       0.00000000
Si       1.59964543       0.95917150      -1.46508347       0.00000000
Si       1.36176256      -1.31329981       1.43248939       0.00000000
Si      -1.47035170       1.43314534       1.27732858       0.00000000
Si       0.78609025      -3.45816829      -1.33992336       0.00000000
Si       2.68381010      -2.70671384      -0.02584540       0.00000000
Si      -3.06351372      -2.24987708      -0.60440513       0.00000000
Si      -0.05673807      -2.68559223       2.78898681       0.00000000
Si      -0.04367349       2.78299992       2.70247987       0.00000000
Si      -2.76970728       0.05274702       2.74499069       0.00000000
