10
Lattice="16.2900001489832 0.0 0.0 0.0 16.2900001489832 0.0 0.0 0.0 29.47023915778811" Properties=species:S:1:pos:R:3:initial_magmoms:R:1 pbc="T T T"
Si      -1.34700382       0.79224787       1.75848917       0.00000000
Si      -0.71886142       0.46722978      -2.23275373       0.00000000
Si       0.07714944      -2.39725271       0.24100762       0.00000000
Si       2.34492109       0.65984275       0.05519776       0.00000000
Si       2.11647501      -2.77796631      -0.87449988       0.00000000
Si       2.77074169       0.72922186      -2.24153586       0.00000000
Si      -2.14332419      -1.24682032       2.71524048       0.00000000
Si       0.90148861       2.07052418      -2.97619945       0.00000000
Si       3.46966903      -1.40411656       0.52928550       0.00000000
Si       0.04194675      -1.35392707      -3.60394502       0.00000000
