10
Lattice="16.2900001489832 0.0 0.0 0.0 16.2900001489832 0.0 0.0 0.0 29.47023915778811" Properties=species:S:1:pos:R:3:initial_magmoms:R:1 pbc="T T T"
Si       1.24419763       1.26071569       1.54378374       0.00000000
Si      -1.34661286       1.46965123      -1.26038319       0.00000000
Si       1.68309911      -0.40938399      -1.62210090       0.00000000
Si      -1.47057976      -1.51705513       1.14483038       0.00000000
H       -2.04706658       0.62683921      -2.30215614       0.00000000
Si       2.41782698       2.74870947       0.14897029       0.00000000
Si       2.57886992      -0.17710488       2.82775196       0.00000000
Si      -0.18205704       2.52858269       2.88670718       0.00000000
Si       0.87386077       0.31921884      -3.73461606       0.00000000
Si       3.51400879       1.03118959      -1.21078478       0.00000000
