10
Lattice="16.2900001489832 0.0 0.0 0.0 16.2900001489832 0.0 0.0 0.0 29.47023915778811" Properties=species:S:1:pos:R:3:initial_magmoms:R:1 pbc="T T T"
Si      -1.36699165       1.27878130      -1.45081987       0.00000000
Si      -1.44950050      -1.33494922       1.32365579       0.00000000
Si       1.33069753      -1.35444835      -1.45137981       0.00000000
Si       1.38251602       1.37239993       1.38716416       0.00000000
Si      -0.02197521      -2.73173528       2.54773165       0.00000000
Si      -2.71088408      -2.70495452      -0.15315683       0.00000000
Si      -0.01897785       2.69324201      -2.73338531       0.00000000
Si      -2.73932643       2.68661198      -0.15719426       0.00000000
Si       2.71992503       2.71236647      -0.05278120       0.00000000
Si      -2.69868287       0.10415826       2.75384650       0.00000000
