10
Lattice="16.2900001489832 0.0 0.0 0.0 16.2900001489832 0.0 0.0 0.0 29.47023915778811" Properties=species:S:1:pos:R:3:initial_magmoms:R:1 pbc="T T T"
H       -1.17524206       0.54880685      -0.77919312       0.00000000
Si       0.53926416      -1.91438453      -1.27500043       0.00000000
Si      -0.83321722      -0.28572660       2.21035635       0.00000000
Si       1.60708996       1.81013667       0.00524570       0.00000000
H        0.34526655      -1.40965516      -2.68786263       0.00000000
H        0.05851368       1.74800498      -2.53950945       0.00000000
Si       1.28718694       0.44078248       3.11724402       0.00000000
Si       1.13779135       2.76493431      -2.13125823       0.00000000
H       -1.39924585       2.79896412      -1.97008549       0.00000000
Si       1.26149761       2.65965203       2.26057364       0.00000000
