10
Lattice="16.2900001489832 0.0 0.0 0.0 16.2900001489832 0.0 0.0 0.0 29.47023915778811" Properties=species:S:1:pos:R:3:initial_magmoms:R:1 pbc="T T T"
Si       1.83708848      -0.56262403       1.35014954       0.00000000
Si       0.97287139       1.81068239      -1.17780758       0.00000000
Si       0.19160298      -1.78958684      -1.64037245       0.00000000
Si      -2.03584277       0.68466871       1.24078548       0.00000000
Si       2.42202980       0.50948604      -2.55229953       0.00000000
Si      -1.99718660      -2.06672861      -2.19635798       0.00000000
Si       0.94868074      -1.48087504       3.25174619       0.00000000
Si      -3.52383654       0.96182677      -0.58162464       0.00000000
Si       3.01843929      -2.31870233       0.32378952       0.00000000
Si       2.29588004       3.04671873       0.36292600       0.00000000
