10
Lattice="16.2900001489832 0.0 0.0 0.0 16.2900001489832 0.0 0.0 0.0 29.47023915778811" Properties=species:S:1:pos:R:3:initial_magmoms:R:1 pbc="T T T"
Si       1.35236323       1.46280943       1.26056001       0.00000000
Si      -1.29989314       1.31048164      -1.47436659       0.00000000
Si       1.43163037      -1.35870004      -1.30818392       0.00000000
Si      -1.36166482      -1.42249168       1.35666246       0.00000000
Si       2.67245597       0.13991481       2.61501220       0.00000000
Si      -0.13119966       2.62505207       2.68379574       0.00000000
Si       0.04719213      -2.76276774      -2.60751792       0.00000000
Si      -2.74406682       2.64202625      -0.14328430       0.00000000
Si       0.05290992      -2.63542880       2.79507536       0.00000000
Si      -2.59916726      -0.07716573      -2.83571777       0.00000000
