10
Lattice="16.2900001489832 0.0 0.0 0.0 16.2900001489832 0.0 0.0 0.0 29.47023915778811" Properties=species:S:1:pos:R:3:initial_magmoms:R:1 pbc="T T T"
Si       1.38342826       1.38681821      -1.25329854       0.00000000
Si       1.42565194      -1.15531597       1.46101658       0.00000000
Si      -1.36783873       1.39520756       1.33279157       0.00000000
Si      -1.26188857      -1.41097302      -1.49065480       0.00000000
Si      -0.00356751      -2.49174937       2.72393421       0.00000000
Si      -2.65582388      -2.64407717      -0.01099240       0.00000000
Si       2.78358798      -2.56946896       0.13800913       0.00000000
Si       0.04636134       2.74284669      -2.63027779       0.00000000
Si       2.67124074       0.07561492      -2.72697553       0.00000000
Si      -2.61032591       0.05844363      -2.79951358       0.00000000
