10
Lattice="16.2900001489832 0.0 0.0 0.0 16.2900001489832 0.0 0.0 0.0 29.47023915778811" Properties=species:S:1:pos:R:3:initial_magmoms:R:1 pbc="T T T"
Si       1.31586060       1.40336722       1.37254692       0.00000000
Si       1.38959240      -1.38609982      -1.34130847       0.00000000
Si      -1.33740901      -1.33996654       1.43994536       0.00000000
Si      -1.35446464       1.38494323      -1.38127011       0.00000000
Si      -2.73890288      -0.01912446      -2.68060411       0.00000000
Si      -2.71992503      -2.71236647       0.05278120       0.00000000
Si      -0.11363904       2.88355809       2.54192601       0.00000000
Si       2.60705162       0.05035239       2.83592111       0.00000000
Si       2.72850986      -2.72613152       0.10877465       0.00000000
Si      -2.73318510       0.10821447       2.72198917       0.00000000
