10
Lattice="16.2900001489832 0.0 0.0 0.0 16.2900001489832 0.0 0.0 0.0 29.47023915778811" Properties=species:S:1:pos:R:3:initial_magmoms:R:1 pbc="T T T"
Si       0.59372326       2.13455202       0.81099151       0.00000000
Si      -2.14431625      -0.03490947      -0.99011163       0.00000000
Si       1.63616924      -0.03272661      -1.80684983       0.00000000
Si       0.23687289      -1.61292178       1.84698830       0.00000000
Si       2.73145998       1.44911606       1.59448729       0.00000000
Si      -1.60650190       1.39086628      -2.88036223       0.00000000
Si      -2.21757238      -2.33639327      -1.67187614       0.00000000
Si       3.54771931      -0.65837665       0.97357882       0.00000000
Si       3.22180528      -1.58377897      -1.17904533       0.00000000
Si      -0.34831930      -3.67769559      -0.93721255       0.00000000
