10
Lattice="16.2900001489832 0.0 0.0 0.0 16.2900001489832 0.0 0.0 0.0 29.47023915778811" Properties=species:S:1:pos:R:3:initial_magmoms:R:1 pbc="T T T"
Si      -1.38546451       1.65762155      -0.98669308       0.00000000
Si      -1.20052414      -2.05760621      -0.20629167       0.00000000
Si       1.82969282      -0.38631735      -1.58037105       0.00000000
Si      -0.05051529       0.89495632       2.40692284       0.00000000
Si      -2.79733512      -1.65149651       1.63901682       0.00000000
Si       3.21067758      -2.11950821      -0.59927731       0.00000000
Si       2.59809212      -2.43766820       1.65952811       0.00000000
Si      -1.33846786       1.60461388      -3.35963673       0.00000000
Si      -2.06721731      -2.16642341      -2.58701547       0.00000000
Si      -0.87296482       3.86006215      -0.19465093       0.00000000
