10
Lattice="16.2900001489832 0.0 0.0 0.0 16.2900001489832 0.0 0.0 0.0 29.47023915778811" Properties=species:S:1:pos:R:3:initial_magmoms:R:1 pbc="T T T"
Si      -1.14675085       0.69776587       0.67757974       0.00000000
H        1.45775953      -1.05095913      -0.56942396       0.00000000
Si       2.53703720      -0.03402981      -0.16117274       0.00000000
H        0.22400379      -2.25015727       1.19089236       0.00000000
Si       1.54500877       2.18139392      -0.36277864       0.00000000
Si      -0.05180220       2.58750362       1.48252985       0.00000000
Si      -2.70545951       0.96181048      -1.04109514       0.00000000
Si      -2.26554806      -0.83010420       2.04936043       0.00000000
Si       0.67831561       2.07257672      -2.74350244       0.00000000
Si       1.39924585      -2.79896412       1.97008549       0.00000000
