10
Lattice="16.2900001489832 0.0 0.0 0.0 16.2900001489832 0.0 0.0 0.0 29.47023915778811" Properties=species:S:1:pos:R:3:initial_magmoms:R:1 pbc="T T T"
Si      -1.42625467       1.26786700       1.34292343       0.00000000
Si       1.33467229      -1.43782057       1.28396822       0.00000000
Si      -1.24419763      -1.26071569      -1.54378374       0.00000000
Si       1.17362935       1.48799377      -1.39481345       0.00000000
Si      -0.76817125       3.05207814      -1.64648753       0.00000000
Si       2.26981115      -0.22952610      -2.75456852       0.00000000
Si       0.43890147      -1.67009969      -3.16588465       0.00000000
Si      -2.68280012       2.53263890      -0.20572290       0.00000000
Si      -0.04181643       2.67193469       2.64225744       0.00000000
Si       2.70224061      -0.09910836       2.68221908       0.00000000
