10
Lattice="16.2900001489832 0.0 0.0 0.0 16.2900001489832 0.0 0.0 0.0 29.47023915778811" Properties=species:S:1:pos:R:3:initial_magmoms:R:1 pbc="T T T"
Si       0.68095459      -2.15130629      -0.65014295       0.00000000
Si       1.43291728       1.37582083       1.29645476       0.00000000
Si      -0.12471624       1.56069604      -1.83517073       0.00000000
Si      -1.63160641      -0.15029154       1.83293099       0.00000000
Si      -2.59941161       1.96507901       0.97472816       0.00000000
Si      -1.17343387       3.18321264      -0.54175141       0.00000000
H       -2.81325045      -2.22558869      -0.62851179       0.00000000
Si      -0.35280882      -3.50393016       0.95082780       0.00000000
Si       1.37248138       0.32112477       3.40416627       0.00000000
Si       0.81897976       3.66432150       0.64696016       0.00000000
