10
Lattice="16.2900001489832 0.0 0.0 0.0 16.2900001489832 0.0 0.0 0.0 29.47023915778811" Properties=species:S:1:pos:R:3:initial_magmoms:R:1 pbc="T T T"
Si       1.34671060      -1.07719255       1.62708137       0.00000000
Si       1.32387202       1.47577627      -1.33691445       0.00000000
Si      -1.36686133       1.46707741       1.38897363       0.00000000
Si      -0.75562795      -2.05506497      -1.25392626       0.00000000
H       -1.82768915      -0.24415452      -2.07381778       0.00000000
Si       2.74705603      -2.45531027       0.31577656       0.00000000
Si      -2.67025682      -2.57450420       0.18683837       0.00000000
Si      -0.02927313      -2.43520841       3.03481871       0.00000000
Si       2.56626798       2.95366536       0.15265289       0.00000000
Si       1.18617265      -3.61914933      -1.00225218       0.00000000
