10
Lattice="16.2900001489832 0.0 0.0 0.0 16.2900001489832 0.0 0.0 0.0 29.47023915778811" Properties=species:S:1:pos:R:3:initial_magmoms:R:1 pbc="T T T"
Si       0.19399761      -0.50472936       1.41286221       0.00000000
H       -0.36367425       1.22748409      -1.76435375       0.00000000
H        1.47690028      -0.09023031      -1.81775382       0.00000000
Si      -0.34526655       1.40965516       2.68786263       0.00000000
H        2.27919908       1.93025099      -0.87844889       0.00000000
H       -1.52050861       1.95846201       1.90866951       0.00000000
Si       2.22244472      -1.38404728      -1.75427493       0.00000000
H       -0.28675287       3.15766014       0.14835318       0.00000000
Si      -1.19622358      -2.39637305       1.79724254       0.00000000
Si       2.29351799      -1.57869649       1.74982492       0.00000000
