10
Lattice="16.2900001489832 0.0 0.0 0.0 16.2900001489832 0.0 0.0 0.0 29.47023915778811" Properties=species:S:1:pos:R:3:initial_magmoms:R:1 pbc="T T T"
Si      -1.37254654      -1.34152175      -1.38225147       0.00000000
Si       1.36720342      -1.41428608       1.35869591       0.00000000
Si       1.33561711       1.26399650      -1.53264694       0.00000000
Si      -1.37329588       1.36999553       1.40985624       0.00000000
Si       2.70443324       2.58335619      -0.08481535       0.00000000
Si       0.07635123      -2.75458364      -2.58650269       0.00000000
Si      -2.70957763       2.63975217      -0.06934347       0.00000000
Si      -2.70930233      -2.74331096      -0.00987253       0.00000000
Si       0.03412755       2.64923295       2.83692310       0.00000000
Si       2.75696850      -2.75086952      -0.02781991       0.00000000
