10
Lattice="16.2900001489832 0.0 0.0 0.0 16.2900001489832 0.0 0.0 0.0 29.47023915778811" Properties=species:S:1:pos:R:3:initial_magmoms:R:1 pbc="T T T"
Si      -1.43798347      -0.61037002       1.70603214       0.00000000
Si      -1.50905674      -0.41572080      -1.79806770       0.00000000
Si       0.73485657       2.08367021       0.89592474       0.00000000
Si       1.61360759      -1.69080428      -0.52745834       0.00000000
H        2.11346462      -0.62201737       1.97138218       0.00000000
H        1.31362724      -1.77375296      -2.02560742       0.00000000
H       -2.25460118       0.87809617      -1.86154660       0.00000000
H        0.58824168       1.92893150      -2.33861083       0.00000000
Si       2.48648933       0.85330279       1.82665383       0.00000000
H       -1.45230238       2.89857747      -0.92224166       0.00000000
