10
Lattice="16.2900001489832 0.0 0.0 0.0 16.2900001489832 0.0 0.0 0.0 29.47023915778811" Properties=species:S:1:pos:R:3:initial_magmoms:R:1 pbc="T T T"
Si       1.41397201       1.43330824       1.23064772       0.00000000
Si       1.22807053      -1.37788966      -1.51739314       0.00000000
Si      -1.47379052       1.26553753      -1.47339408       0.00000000
Si      -0.81645481      -0.86576464       2.14257480       0.00000000
Si      -3.00524439      -1.14290641       1.58658927       0.00000000
Si      -0.03518640       2.73450459       2.60513967       0.00000000
Si       2.91573084       0.04419477       2.47184578       0.00000000
Si       2.60775209      -2.79977862      -0.21203837       0.00000000
Si       2.69083109       2.73701325      -0.23019204       0.00000000
Si      -2.84705220       2.64455120      -0.12286143       0.00000000
