10
Lattice="16.2900001489832 0.0 0.0 0.0 16.2900001489832 0.0 0.0 0.0 29.47023915778811" Properties=species:S:1:pos:R:3:initial_magmoms:R:1 pbc="T T T"
Si      -1.30562038      -1.65297890      -1.11400451       0.00000000
Si       1.89353821       1.03995361      -1.02529909       0.00000000
Si       0.53195484      -0.68031928       2.23474209       0.00000000
Si      -1.81905056       1.69016897      -0.12569057       0.00000000
Si      -1.22395405       1.08652672       2.23455613       0.00000000
H        1.52709466      -2.28729521       1.00670337       0.00000000
Si       0.86088252       1.14433993      -3.19554644       0.00000000
Si       0.39886554      -2.71385701      -2.44735601       0.00000000
Si      -1.43576497       1.82280215      -2.90514671       0.00000000
Si       2.50972376       2.79722109       0.51540501       0.00000000
