10
Lattice="16.2900001489832 0.0 0.0 0.0 16.2900001489832 0.0 0.0 0.0 29.47023915778811" Properties=species:S:1:pos:R:3:initial_magmoms:R:1 pbc="T T T"
Si      -2.18139392      -0.68892040      -0.54720340       0.00000000
Si       0.58912786       1.19775484       1.93867021       0.00000000
Si       0.60823603       1.13037940      -2.01773886       0.00000000
Si       1.06753258      -2.37977354       0.68509465       0.00000000
Si      -1.23869161      -1.93777045      -2.28989652       0.00000000
Si       3.19010331      -1.09428076       0.48284040       0.00000000
Si      -0.74153710      -2.29720279       2.57546314       0.00000000
Si      -0.44463555      -0.15486903       3.53964095       0.00000000
Si       2.93913957       0.95589721       1.83723365       0.00000000
H       -2.90507718       1.12347244       1.96030137       0.00000000
