10
Lattice="16.2900001489832 0.0 0.0 0.0 16.2900001489832 0.0 0.0 0.0 29.47023915778811" Properties=species:S:1:pos:R:3:initial_magmoms:R:1 pbc="T T T"
Si       1.31659039      -1.37339362       1.37558235       0.00000000
Si       1.44013375       1.31610169      -1.33913651       0.00000000
Si      -1.31572702      -1.40792842      -1.38108739       0.00000000
Si      -1.34685721       1.39367467       1.38846085       0.00000000
Si       0.08154774       2.75128329      -2.59434178       0.00000000
Si      -2.63566501      -0.00133578      -2.71957261       0.00000000
Si       2.67170663      -0.00483813       2.69104542       0.00000000
Si       2.70889670      -2.70298343       0.00724968       0.00000000
Si      -2.66793713      -2.75227698       0.03943118       0.00000000
Si      -2.70410582       2.76255597      -0.01771161       0.00000000
