10
Lattice="16.28999089631971 0.0 0.0 0.0 16.28999089631971 0.0 0.0 0.0 34.25627252547053" Properties=species:S:1:pos:R:3:initial_magmoms:R:1 pbc="T T T"
Si       0.61105419      -0.23951187      -2.22302779       0.00000000
Si      -2.25112324       0.49213719      -0.36030768       0.00000000
Si       0.58342635      -2.10645990       0.87247349       0.00000000
Si       0.50018445       2.18638908       0.92707802       0.00000000
Si      -2.91997924      -1.28427102       1.02868218       0.00000000
Si       0.53662518       2.05904527      -2.69734041       0.00000000
Si       1.90079865       2.86956888      -0.81471738       0.00000000
Si      -1.25146296      -2.56492566       2.16766962       0.00000000
Si       2.86933689      -0.55671075      -2.23446939       0.00000000
Si      -2.59038693       0.07579737      -2.65260169       0.00000000
