10
Lattice="16.28999089631971 0.0 0.0 0.0 16.28999089631971 0.0 0.0 0.0 34.25627252547053" Properties=species:S:1:pos:R:3:initial_magmoms:R:1 pbc="T T T"
Si      -1.35620766      -1.34195391      -1.40139064       0.00000000
Si       1.35749457       1.37305152      -1.39433384       0.00000000
Si      -1.48810779       1.35220032       1.39851311       0.00000000
Si       1.40773293      -1.48890600       1.52015720       0.00000000
Si      -2.69323710      -2.69490357      -0.05316576       0.00000000
Si       2.73553083      -2.70137884      -0.01462744       0.00000000
Si       2.70238068       2.74553289      -0.02644586       0.00000000
Si      -0.00081450      -2.69744970      -2.75564461       0.00000000
Si      -2.73400609       2.72510523      -0.03864110       0.00000000
Si      -2.71471710       0.01425375      -2.75643251       0.00000000
