10
Lattice="16.28999089631971 0.0 0.0 0.0 16.28999089631971 0.0 0.0 0.0 34.25627252547053" Properties=species:S:1:pos:R:3:initial_magmoms:R:1 pbc="T T T"
Si      -1.35539316       1.35549579       1.35425398       0.00000000
Si       1.35879777       1.35510483      -1.35846750       0.00000000
Si      -1.35565380      -1.35981491      -1.35819345       0.00000000
Si       1.36161594      -1.36141179       1.35839899       0.00000000
Si      -2.69242260       0.00254613       2.70247885       0.00000000
Si      -2.71390260       2.71170345      -0.00078789       0.00000000
Si       0.00073305       2.71333245      -2.71597583       0.00000000
Si       2.71744893       2.71207812      -0.00123323       0.00000000
Si      -2.71403943      -0.00164692      -2.71628414       0.00000000
Si      -2.71439781      -2.71634351      -0.00174707       0.00000000
