10
Lattice="16.28999089631971 0.0 0.0 0.0 16.28999089631971 0.0 0.0 0.0 34.25627252547053" Properties=species:S:1:pos:R:3:initial_magmoms:R:1 pbc="T T T"
Si       1.35444834      -1.35626750      -1.35870730       0.00000000
Si      -1.36161594       1.36141179      -1.35839899       0.00000000
Si      -1.35466011      -1.37092850       1.37220428       0.00000000
Si       1.37472939       1.35748265       1.38261819       0.00000000
Si      -2.63208933       0.06262492       2.68973551       0.00000000
Si       2.71163340      -2.71320821       0.00229517       0.00000000
Si       2.71135647       2.71617453      -0.00489865       0.00000000
Si       2.71207323       0.00183116      -2.71666095       0.00000000
Si      -2.71808424      -2.71078100      -0.00113046       0.00000000
Si      -0.00329058      -2.71286612      -2.71707203       0.00000000
