10
Lattice="16.28999089631971 0.0 0.0 0.0 16.28999089631971 0.0 0.0 0.0 34.25627252547053" Properties=species:S:1:pos:R:3:initial_magmoms:R:1 pbc="T T T"
Si       1.30829877      -1.41460731       1.33493343       0.00000000
Si      -1.34488611      -1.37248137      -1.36788798       0.00000000
Si       1.37482713       1.33968960      -1.37076551       0.00000000
Si      -1.32059772       1.44037809       1.43431093       0.00000000
Si       0.29097198       2.46749517       2.86468239       0.00000000
Si      -2.70238068       2.71992501       0.00695403       0.00000000
Si       2.73432537       2.69206911       0.00428204       0.00000000
Si       0.01324377       2.70053991      -2.73012368       0.00000000
Si      -2.70202230      -0.01573614      -2.73077455       0.00000000
Si      -2.70238068      -2.74553289       0.02644586       0.00000000
