10
Lattice="16.28999089631971 0.0 0.0 0.0 16.28999089631971 0.0 0.0 0.0 34.25627252547053" Properties=species:S:1:pos:R:3:initial_magmoms:R:1 pbc="T T T"
Si      -1.30829877       1.41460731      -1.33493343       0.00000000
Si      -1.33286409      -1.22657184       1.49131340       0.00000000
Si       1.78432515       0.83344527       1.28402858       0.00000000
Si       1.40587587      -1.33221249      -1.34411412       0.00000000
Si       0.50616288       2.34918090       2.62300425       0.00000000
Si       0.34924131      -2.06060355       3.11362286       0.00000000
Si      -2.65318488       0.04212594      -2.70282141       0.00000000
Si       0.06147846      -2.67361254      -2.71063185       0.00000000
Si       2.71792134      -2.66634720       0.14678821       0.00000000
Si      -2.60294652      -2.81983158       0.21166963       0.00000000
