10
Lattice="16.28999089631971 0.0 0.0 0.0 16.28999089631971 0.0 0.0 0.0 34.25627252547053" Properties=species:S:1:pos:R:3:initial_magmoms:R:1 pbc="T T T"
Si      -0.66867192       0.10200798      -2.25406399       0.00000000
Si      -1.81359828       0.47798118       1.48350297       0.00000000
Si       0.91486269      -2.20343427      -0.43628813       0.00000000
Si       0.46488402       2.25007254       0.97698944       0.00000000
Si      -2.20991769      -1.84019985       1.65454463       0.00000000
Si       1.69544691       1.20202281       2.75437713       0.00000000
Si      -1.45433862      -3.39491745      -0.01956034       0.00000000
Si       1.06999236      -1.08015732       3.43981127       0.00000000
Si      -2.49171840       1.87637994      -2.18894278       0.00000000
Si      -3.41529298       1.74314403       0.11904061       0.00000000
