10
Lattice="16.28999089631971 0.0 0.0 0.0 16.28999089631971 0.0 0.0 0.0 34.25627252547053" Properties=species:S:1:pos:R:3:initial_magmoms:R:1 pbc="T T T"
Si       0.57920724       2.10359286      -0.85918205       0.00000000
Si       0.99504207      -1.93311801      -0.91392361       0.00000000
Si       0.40969350       0.38779974       2.34580234       0.00000000
Si      -2.34023769       0.12605202      -0.66155750       0.00000000
Si      -1.91083329       0.52924581       2.63396627       0.00000000
Si      -2.64139092       1.92000456       0.79022414       0.00000000
Si       0.54763722       1.45114578      -3.11060831       0.00000000
Si      -2.33207640      -1.78958682       2.09134661       0.00000000
Si      -0.83816937      -0.35233641      -3.54470404       0.00000000
Si      -0.48296592      -2.46431862      -2.67613576       0.00000000
