10
Lattice="16.28999089631971 0.0 0.0 0.0 16.28999089631971 0.0 0.0 0.0 34.25627252547053" Properties=species:S:1:pos:R:3:initial_magmoms:R:1 pbc="T T T"
Si      -0.50371938      -0.07819200       2.29640477       0.00000000
Si       1.54381959      -1.25848884      -1.25357474       0.00000000
Si      -1.91395120      -1.04761642      -0.97897630       0.00000000
Si       0.20901699       2.44395612      -0.30498376       0.00000000
Si       2.17324890       0.61678827      -2.66880492       0.00000000
Si       3.43018530       0.52189902       0.82831713       0.00000000
Si      -1.31075856      -0.82977513      -3.28456176       0.00000000
Si      -1.98997174       1.72900431       2.53133442       0.00000000
Si      -3.63204188       0.51388434      -0.70742668       0.00000000
Si       3.31333713      -1.75263133       0.17025377       0.00000000
