10
Lattice="16.28999089631971 0.0 0.0 0.0 16.28999089631971 0.0 0.0 0.0 34.25627252547053" Properties=species:S:1:pos:R:3:initial_magmoms:R:1 pbc="T T T"
Si       1.36272366      -1.31924565       1.33327200       0.00000000
Si      -1.78365726      -0.88741404      -1.25044234       0.00000000
Si       1.46606742       1.17302661      -1.42333663       0.00000000
Si      -1.34560287       1.41159366       1.32500938       0.00000000
Si      -0.90492579      -0.15426630      -3.34699868       0.00000000
Si      -0.17212014       2.20253832      -2.80701676       0.00000000
Si       0.00133578      -2.66849748       2.68304868       0.00000000
Si       2.68851789      -2.67620265      -0.02424660       0.00000000
Si      -2.70989037       0.04763196       2.67835557       0.00000000
Si       2.71666701       0.04683375       2.68061648       0.00000000
