10
Lattice="16.28999089631971 0.0 0.0 0.0 16.28999089631971 0.0 0.0 0.0 34.25627252547053" Properties=species:S:1:pos:R:3:initial_magmoms:R:1 pbc="T T T"
Si      -1.38178296       1.27954692      -1.42735690       0.00000000
Si       1.61156970       1.02711708       1.43037146       0.00000000
Si       1.32059772      -1.44037809      -1.43431093       0.00000000
Si      -1.86857703      -1.04674653       1.27484789       0.00000000
Si       2.63691117       2.55321315      -0.06193538       0.00000000
Si      -2.70280422       2.59279785       0.14264320       0.00000000
Si      -0.02881701       2.61757494      -2.80617264       0.00000000
Si       2.62889649      -2.85498540      -0.09937750       0.00000000
Si       2.69542485      -0.10068849      -2.80507644       0.00000000
Si      -1.19990511      -1.14875451       3.52891189       0.00000000
