10
Lattice="16.28999089631971 0.0 0.0 0.0 16.28999089631971 0.0 0.0 0.0 34.25627252547053" Properties=species:S:1:pos:R:3:initial_magmoms:R:1 pbc="T T T"
Si       1.23056289      -1.04804973       1.77738769       0.00000000
Si       1.33776738       1.38290697      -1.50477612       0.00000000
Si      -0.46488402      -2.25007254      -0.97698944       0.00000000
Si      -1.75402575       1.81234395       0.81262775       0.00000000
Si      -2.27848230      -1.77209136       0.50651353       0.00000000
Si      -2.52827316      -0.03688056       2.15752976       0.00000000
Si       2.99180511       2.01870567       0.30604571       0.00000000
Si       3.42630828      -0.09402588       1.43194725       0.00000000
Si       2.34659079      -0.07420095      -3.07552987       0.00000000
Si       0.85639788       0.17063775       3.81043009       0.00000000
