10
Lattice="16.28999089631971 0.0 0.0 0.0 16.28999089631971 0.0 0.0 0.0 34.25627252547053" Properties=species:S:1:pos:R:3:initial_magmoms:R:1 pbc="T T T"
Si      -1.33068123      -1.37905668      -1.34778639       0.00000000
Si       1.35423657      -1.35781055       1.35785089       0.00000000
Si      -1.35935163       1.36009771       1.35654915       0.00000000
Si       1.35791811       1.35760534      -1.37052229       0.00000000
Si      -0.12668733       2.59395118      -2.75898118       0.00000000
Si       2.71127502      -2.71037322       0.00373394       0.00000000
Si      -2.70466128      -0.10411753      -2.71692815       0.00000000
Si       2.71243161       0.00114682       2.71474260       0.00000000
Si      -0.00283446      -2.71350090       2.71474260       0.00000000
Si       2.71160082       2.71687552      -0.00322009       0.00000000
