10
Lattice="16.28999089631971 0.0 0.0 0.0 16.28999089631971 0.0 0.0 0.0 34.25627252547053" Properties=species:S:1:pos:R:3:initial_magmoms:R:1 pbc="T T T"
Si       1.34439741       1.34140005       1.36651773       0.00000000
Si       1.35632169      -1.35642269      -1.35452803       0.00000000
Si      -1.35552348       1.35731538      -1.35473357       0.00000000
Si      -1.33662708      -1.35869189       1.38751684       0.00000000
Si      -0.06147846       2.67361254       2.71063185       0.00000000
Si       0.00071676      -2.71434337      -2.71176230       0.00000000
Si      -2.71417464       0.00034209      -2.71196784       0.00000000
Si       2.71494027       0.00087966      -2.71193359       0.00000000
Si      -2.71135647      -2.71617453       0.00489865       0.00000000
Si       0.00099369       2.71533123      -2.71220764       0.00000000
