10
Lattice="16.28999089631971 0.0 0.0 0.0 16.28999089631971 0.0 0.0 0.0 34.25627252547053" Properties=species:S:1:pos:R:3:initial_magmoms:R:1 pbc="T T T"
Si      -0.25075197      -2.21004149      -0.62613650       0.00000000
Si       2.23754553       0.66264462       0.25068754       0.00000000
Si      -1.16714592       0.07626978       2.04027048       0.00000000
Si      -1.13727006       1.64486646      -1.26186476       0.00000000
Si       0.06620256       1.87424595       2.85957820       0.00000000
Si       2.08741689       0.77916699       2.62358661       0.00000000
Si       0.33435225       3.46698441      -0.85116608       0.00000000
Si      -0.20536803      -3.24751643       1.55239237       0.00000000
Si      -3.31982055       1.56110328      -0.36160941       0.00000000
Si       2.42931141       2.42589051      -1.37586970       0.00000000
