10
Lattice="16.28999089631971 0.0 0.0 0.0 16.28999089631971 0.0 0.0 0.0 34.25627252547053" Properties=species:S:1:pos:R:3:initial_magmoms:R:1 pbc="T T T"
Si      -1.23994593       1.42975701       1.47253410       0.00000000
Si       1.48496382      -1.26441351       1.44585188       0.00000000
Si      -1.47918087      -1.36717083      -1.37831701       0.00000000
Si       0.76103622       2.02978287      -1.16419254       0.00000000
Si       0.47079729       0.53897094      -3.42694602       0.00000000
Si      -2.61970893       2.80106550       0.12974228       0.00000000
Si      -2.59035435       0.09531279       2.83830505       0.00000000
Si      -2.71441899      -2.74338261       0.07798787       0.00000000
Si       0.12386916      -2.62045827       2.83374896       0.00000000
Si       2.71700910       2.76967467       0.12757728       0.00000000
