10
Lattice="16.28999089631971 0.0 0.0 0.0 16.28999089631971 0.0 0.0 0.0 34.25627252547053" Properties=species:S:1:pos:R:3:initial_magmoms:R:1 pbc="T T T"
Si      -1.60072056      -1.06723935       1.27502294       0.00000000
Si       1.11874833       1.62613296       1.32842508       0.00000000
Si       1.78002459      -1.83852198      -0.01891187       0.00000000
Si      -1.60344099       0.88264107      -1.97126909       0.00000000
Si       2.07976059      -0.97770951      -2.27710927       0.00000000
Si       0.27836352       0.15543918      -3.37906566       0.00000000
Si      -0.22095756      -2.43854784       2.61781477       0.00000000
Si       2.49763167       0.29672235       2.64598029       0.00000000
Si      -3.10764330      -2.02641084      -0.28428375       0.00000000
Si       2.92511385       2.44200132       0.05857620       0.00000000
