10
Lattice="16.28999089631971 0.0 0.0 0.0 16.28999089631971 0.0 0.0 0.0 34.25627252547053" Properties=species:S:1:pos:R:3:initial_magmoms:R:1 pbc="T T T"
Si       1.35635427       1.35728280       1.35654915       0.00000000
Si       1.35708732      -1.35736425      -1.35713151       0.00000000
Si      -1.35816246       1.35767376      -1.35713151       0.00000000
Si      -1.35894438      -1.35803214       1.35678894       0.00000000
Si      -2.71091664      -0.00250866       2.71703777       0.00000000
Si      -0.00065160      -2.71375110      -2.71457132       0.00000000
Si       2.71388142       0.00128691      -2.71450281       0.00000000
Si       0.00206883       2.71531494       2.71368066       0.00000000
Si       2.71472850      -2.71428867      -0.00006851       0.00000000
Si      -0.00042354       2.71401174      -2.71515368       0.00000000
