10
Lattice="16.28999089631971 0.0 0.0 0.0 16.28999089631971 0.0 0.0 0.0 34.25627252547053" Properties=species:S:1:pos:R:3:initial_magmoms:R:1 pbc="T T T"
Si      -0.03256371       0.17897823       2.32857143       0.00000000
Si       1.16859573       1.55372391      -1.29646361       0.00000000
Si      -1.56004443      -1.19337282      -1.29022897       0.00000000
Si      -0.14203251      -2.49489495      -2.65832249       0.00000000
Si       2.55269187       0.22172319      -2.67558766       0.00000000
Si      -2.58538590      -2.71946889       0.20207786       0.00000000
Si      -0.55863297       2.34168750       2.97443955       0.00000000
Si       2.90005983       2.53216647       0.05254915       0.00000000
Si      -2.87091702       0.23855076      -2.66243324       0.00000000
Si      -0.16390998       2.96064234      -2.64828540       0.00000000
