10
Lattice="16.28999089631971 0.0 0.0 0.0 16.28999089631971 0.0 0.0 0.0 34.25627252547053" Properties=species:S:1:pos:R:3:initial_magmoms:R:1 pbc="T T T"
Si       0.53721162       1.76231736      -1.47624063       0.00000000
Si       0.90723897      -0.14221170       2.21131214       0.00000000
Si       0.78884325      -1.91464515      -1.22849913       0.00000000
Si      -2.42196462      -0.01883124       0.11376514       0.00000000
Si      -1.44634023       1.70536752      -2.89547880       0.00000000
Si       2.77034256       1.06411167      -2.17979635       0.00000000
Si       0.46369485      -3.68629668       0.26144402       0.00000000
Si      -3.20225562       1.72963962      -1.25138233       0.00000000
Si      -3.18635658      -2.05092729      -0.80680418       0.00000000
Si       0.22634955       1.77816753       3.44762171       0.00000000
