10
Lattice="16.28999089631971 0.0 0.0 0.0 16.28999089631971 0.0 0.0 0.0 34.25627252547053" Properties=species:S:1:pos:R:3:initial_magmoms:R:1 pbc="T T T"
Si       0.28847961       1.77077187       1.48881269       0.00000000
Si      -1.83350466       0.98191233      -1.06293847       0.00000000
Si       1.87564689      -0.09824499      -1.47757663       0.00000000
Si      -0.66731985      -1.79665668       1.49487606       0.00000000
Si       2.08987668       0.63762318       2.59076908       0.00000000
Si       1.49990175      -1.71400122       2.58621300       0.00000000
Si      -3.75816816       0.23100849       0.10345400       0.00000000
Si       3.72871584      -0.64475820      -0.01613471       0.00000000
Si       2.23306578       2.10864276      -2.37382399       0.00000000
Si      -1.98140157       0.44437491      -3.34663416       0.00000000
