10
Lattice="16.28999089631971 0.0 0.0 0.0 16.28999089631971 0.0 0.0 0.0 34.25627252547053" Properties=species:S:1:pos:R:3:initial_magmoms:R:1 pbc="T T T"
Si       1.35760860      -1.35710361      -1.36250974       0.00000000
Si      -1.35957969       1.35951846      -1.36264677       0.00000000
Si      -1.37323071      -1.33822350       1.38189881       0.00000000
Si       1.35966114       1.36512711       1.38474208       0.00000000
Si      -2.71562445      -2.71344159      -0.00092492       0.00000000
Si      -2.71590138       2.71594115      -0.00811874       0.00000000
Si       2.71751409      -2.71440270      -0.00575506       0.00000000
Si       2.71552671       2.71698371      -0.00215815       0.00000000
Si      -0.00008145      -2.71358820      -2.72022361       0.00000000
Si      -2.71518462       0.00159777      -2.71988105       0.00000000
