10
Lattice="16.28999089631971 0.0 0.0 0.0 16.28999089631971 0.0 0.0 0.0 34.25627252547053" Properties=species:S:1:pos:R:3:initial_magmoms:R:1 pbc="T T T"
Si      -0.35639262      -0.55125360       2.23402406       0.00000000
Si       0.72821187      -1.68360408      -1.52779635       0.00000000
Si      -1.97848566       1.41202113      -1.05660106       0.00000000
Si       2.17158732       0.27326216       1.64639163       0.00000000
Si       1.77052752      -0.02272455      -2.82785688       0.00000000
Si      -2.73048093      -1.87408305       1.39409405       0.00000000
Si      -2.25772884       0.43619474       3.23026554       0.00000000
Si      -3.74503842       0.25138632       1.30334913       0.00000000
Si      -1.00325223      -2.66204664      -2.87680912       0.00000000
Si      -1.02198573       2.80630178      -2.76122839       0.00000000
