10
Lattice="16.28999089631971 0.0 0.0 0.0 16.28999089631971 0.0 0.0 0.0 34.25627252547053" Properties=species:S:1:pos:R:3:initial_magmoms:R:1 pbc="T T T"
Si       2.26103571       0.47361546       0.41422708       0.00000000
Si      -1.55996298       0.96016518       1.51423086       0.00000000
Si      -0.19171701      -2.32873695       0.58461787       0.00000000
Si      -0.17314641       1.23764904      -2.08723585       0.00000000
Si      -0.30794616       3.22418915      -0.72003299       0.00000000
Si       3.12212511      -1.53829728      -0.42580571       0.00000000
Si      -3.16022742      -0.88299945       1.59894667       0.00000000
Si      -2.47933800      -2.80337868       0.36263710       0.00000000
Si       1.29078702      -3.47426604      -0.76836862       0.00000000
Si       2.64342717       0.35917821       2.75495949       0.00000000
