10
Lattice="16.28999089631971 0.0 0.0 0.0 16.28999089631971 0.0 0.0 0.0 34.25627252547053" Properties=species:S:1:pos:R:3:initial_magmoms:R:1 pbc="T T T"
Si      -0.31151367      -2.27587590      -0.57053854       0.00000000
Si      -0.04538394       1.03747493      -2.17852887       0.00000000
Si      -1.05542910       1.29741772       1.75611454       0.00000000
Si       2.36470527      -0.13937724       0.66714128       0.00000000
Si      -0.96177789       3.32378621       0.48787811       0.00000000
Si       2.22990552       1.84716287       2.03434414       0.00000000
Si      -3.31986942       1.24874320      -0.60582252       0.00000000
Si       0.20536803       3.24751643      -1.55239237       0.00000000
Si       1.85595228       0.05002659      -3.17477034       0.00000000
Si       3.20572539      -1.04195727      -1.55283770       0.00000000
