10
Lattice="16.28999089631971 0.0 0.0 0.0 16.28999089631971 0.0 0.0 0.0 34.25627252547053" Properties=species:S:1:pos:R:3:initial_magmoms:R:1 pbc="T T T"
Si      -1.41110496       0.32599680       1.87665205       0.00000000
Si       1.04387949      -2.17567611      -0.01932055       0.00000000
Si      -1.44461349       1.82655602      -0.85284464       0.00000000
Si       2.20967334       0.51949040      -1.57842715       0.00000000
Si       3.12253236      -0.99668736       0.03918920       0.00000000
Si       1.32468651       2.99590109      -0.63511165       0.00000000
Si      -3.21445683       1.17709326       0.53189744       0.00000000
Si       0.14916753       1.55992781       3.15497504       0.00000000
Si       1.86794172       2.51163197       1.73079914       0.00000000
Si      -1.72344942       1.66289202      -3.18059391       0.00000000
