10
Lattice="16.28999089631971 0.0 0.0 0.0 16.28999089631971 0.0 0.0 0.0 34.25627252547053" Properties=species:S:1:pos:R:3:initial_magmoms:R:1 pbc="T T T"
Si      -1.35711990       1.35809730       1.36048862       0.00000000
Si       1.35641943      -1.35964485       1.36007755       0.00000000
Si      -1.35368271      -1.35927018      -1.36730220       0.00000000
Si       1.36109466       1.35604476      -1.38789708       0.00000000
Si      -2.71160082      -2.71687552       0.00322009       0.00000000
Si       2.71640637       2.71303434      -0.00075364       0.00000000
Si      -2.71422351       2.71577106       0.00455609       0.00000000
Si      -2.71401174      -0.00073305       2.71792844       0.00000000
Si       0.00061902       2.71448415       2.71792844       0.00000000
Si       2.71622718      -0.00110772       2.71741459       0.00000000
