10
Lattice="16.28999089631971 0.0 0.0 0.0 16.28999089631971 0.0 0.0 0.0 34.25627252547053" Properties=species:S:1:pos:R:3:initial_magmoms:R:1 pbc="T T T"
Si       1.35679410      -1.35691480      -1.35692597       0.00000000
Si      -1.35777150       1.35784695      -1.35696023       0.00000000
Si       1.35769005       1.35783066       1.35747407       0.00000000
Si      -1.35752715      -1.35803881       1.35785089       0.00000000
Si       2.71365791       0.00005417      -2.71450281       0.00000000
Si      -0.00040725      -2.71470259      -2.71357789       0.00000000
Si      -0.00218286       2.71393080      -2.71484537       0.00000000
Si       2.71430929      -2.71453969       0.00020554       0.00000000
Si      -2.71521720      -2.71452340       0.00013703       0.00000000
Si      -2.71596654      -0.00111041      -2.71385194       0.00000000
