10
Lattice="16.28999089631971 0.0 0.0 0.0 16.28999089631971 0.0 0.0 0.0 34.25627252547053" Properties=species:S:1:pos:R:3:initial_magmoms:R:1 pbc="T T T"
Si      -1.35558864      -1.35608386       1.35788515       0.00000000
Si       1.35980775       1.35853713       1.35733704       0.00000000
Si      -1.35641943       1.35964485      -1.36007755       0.00000000
Si       1.36296801      -1.35514392      -1.35853602       0.00000000
Si       0.00218286      -2.71393080       2.71484537       0.00000000
Si      -2.71378368      -2.71504122       0.00099343       0.00000000
Si      -2.71391400       0.00195480       2.71515368       0.00000000
Si       2.71584077      -2.71387664       0.00034256       0.00000000
Si      -0.01894527      -2.71787009      -2.71313941       0.00000000
Si      -2.71353933       2.71774215       0.00041108       0.00000000
