10
Lattice="16.28999089631971 0.0 0.0 0.0 16.28999089631971 0.0 0.0 0.0 34.25627252547053" Properties=species:S:1:pos:R:3:initial_magmoms:R:1 pbc="T T T"
Si      -1.35477414      -1.35418770      -1.38066558       0.00000000
Si       1.36001343       1.36388025      -1.38309778       0.00000000
Si       1.44464136      -1.38652335       1.34582693       0.00000000
Si      -1.44577008       1.40071194       1.40118510       0.00000000
Si       2.69762467       2.71256193      -0.02312300       0.00000000
Si      -2.71063971      -2.70604430       0.00623465       0.00000000
Si       2.73839365      -2.70744687      -0.03764766       0.00000000
Si      -2.71797021       2.73470004      -0.02778185       0.00000000
Si       0.00252495      -2.71240555      -2.74139400       0.00000000
Si      -2.71357191       0.00241092      -2.74050333       0.00000000
