10
Lattice="16.28999089631971 0.0 0.0 0.0 16.28999089631971 0.0 0.0 0.0 34.25627252547053" Properties=species:S:1:pos:R:3:initial_magmoms:R:1 pbc="T T T"
Si      -0.31047111       1.44242411       1.92814963       0.00000000
Si       1.67042547       1.36099366      -1.19684632       0.00000000
Si       1.04239710      -2.09795393       1.23668639       0.00000000
Si      -2.52797994      -0.82451576       0.58763243       0.00000000
Si      -2.17158732      -0.27326216      -1.64639163       0.00000000
Si      -1.17820683      -1.91649962       2.20956507       0.00000000
Si       0.30903759      -0.08049541       3.75784668       0.00000000
Si       1.61039682       0.51343311      -3.40493837       0.00000000
Si       2.39320350      -0.97195655       2.79017496       0.00000000
Si       1.64081025       2.64071651       2.27889980       0.00000000
