10
Lattice="16.28999089631971 0.0 0.0 0.0 16.28999089631971 0.0 0.0 0.0 34.25627252547053" Properties=species:S:1:pos:R:3:initial_magmoms:R:1 pbc="T T T"
Si       1.35777157      -1.35578412       1.36007755       0.00000000
Si      -1.35899325       1.36010097       1.36131077       0.00000000
Si       1.36008468       1.35361755      -1.37712005       0.00000000
Si      -1.35531171      -1.35698958      -1.38714344       0.00000000
Si      -0.12326643       2.67709860      -2.70541804       0.00000000
Si      -2.71640637      -2.71303434       0.00075364       0.00000000
Si      -2.71339272       2.71639008       0.00393947       0.00000000
Si      -0.00017919      -2.71414206       2.71816823       0.00000000
Si       2.71547199       0.00086337       2.71837377       0.00000000
Si      -2.71578735       0.00144981       2.71868208       0.00000000
