10
Lattice="16.28999089631971 0.0 0.0 0.0 16.28999089631971 0.0 0.0 0.0 34.25627252547053" Properties=species:S:1:pos:R:3:initial_magmoms:R:1 pbc="T T T"
Si       1.35866136      -1.35307998       1.35833048       0.00000000
Si      -1.35685926      -1.35606105      -1.35737130       0.00000000
Si       1.35776192       1.35814617      -1.35723428       0.00000000
Si      -1.35751086       1.35638685       1.36093396       0.00000000
Si       2.69627260      -0.00439830       2.71830526       0.00000000
Si      -2.71450044       0.00086337      -2.71443430       0.00000000
Si      -2.71492398      -2.71454931       0.00092492       0.00000000
Si       0.00110772      -2.71472850      -2.71494814       0.00000000
Si       0.00034209       2.71614573      -2.71392045       0.00000000
Si      -2.71523349       2.71551042      -0.00075364       0.00000000
