10
Lattice="16.28999089631971 0.0 0.0 0.0 16.28999089631971 0.0 0.0 0.0 34.25627252547053" Properties=species:S:1:pos:R:3:initial_magmoms:R:1 pbc="T T T"
Si       1.91498724      -1.24178670      -0.67841160       0.00000000
Si      -0.68282793       1.88900469      -1.30297231       0.00000000
Si       0.99478143       1.14303672       1.88467840       0.00000000
Si      -2.19339963      -0.95226453      -0.44587989       0.00000000
Si      -3.33238014       0.66479490       0.76031839       0.00000000
Si       1.81771965      -1.27480653      -2.99458225       0.00000000
Si      -0.08377947       0.27070722       3.75877160       0.00000000
Si       3.77208880       0.02619432      -0.12030810       0.00000000
Si      -2.35680462       0.27671823       2.97358314       0.00000000
Si      -2.40762942      -1.18620522      -2.81038617       0.00000000
