10
Lattice="16.28999089631971 0.0 0.0 0.0 16.28999089631971 0.0 0.0 0.0 34.25627252547053" Properties=species:S:1:pos:R:3:initial_magmoms:R:1 pbc="T T T"
Si      -0.41295150      -1.41439554       1.88169810       0.00000000
Si       2.22852087       0.86100795       0.15792150       0.00000000
Si      -1.19816208       2.07583470      -0.18779299       0.00000000
Si       0.02070459      -1.50454440      -1.91009657       0.00000000
Si      -2.71461447      -2.07655146      -0.16141565       0.00000000
Si      -0.11960118       2.94816420      -2.06188620       0.00000000
Si       2.16637452       2.30501871      -1.79420753       0.00000000
Si       3.47246992      -1.06292250      -0.26969978       0.00000000
Si       0.47175840      -3.46063131       1.13011506       0.00000000
Si       0.13185126      -3.70503018      -1.12867630       0.00000000
