10
Lattice="16.28999089631971 0.0 0.0 0.0 16.28999089631971 0.0 0.0 0.0 34.25627252547053" Properties=species:S:1:pos:R:3:initial_magmoms:R:1 pbc="T T T"
Si      -1.90097784       0.75318444       1.08585593       0.00000000
Si       1.88456015       0.31521150       1.33465938       0.00000000
Si       0.10770948      -2.15071983      -0.93615594       0.00000000
Si       0.32783625       1.82242746      -1.51649178       0.00000000
Si       3.36425708      -0.05452263      -0.54248263       0.00000000
Si       2.23789481       0.95291613      -2.56812567       0.00000000
Si      -1.31100291       3.10480884       1.09041202       0.00000000
Si       0.81507015       3.57102864       0.05970872       0.00000000
Si      -1.05591780      -3.66666723       0.77073231       0.00000000
Si      -1.20547629      -2.48394807      -2.86002354       0.00000000
