10
Lattice="16.28999089631971 0.0 0.0 0.0 16.28999089631971 0.0 0.0 0.0 34.25627252547053" Properties=species:S:1:pos:R:3:initial_magmoms:R:1 pbc="T T T"
Si       0.42344226      -0.29462094       2.27372710       0.00000000
Si      -1.14067467      -1.94360877      -0.60842600       0.00000000
Si       2.22615882       0.10174734      -0.75929070       0.00000000
Si      -1.48357917       1.58258979      -0.98637566       0.00000000
Si      -1.49320656       0.41492259      -3.05771659       0.00000000
Si      -3.46507848      -1.39616703      -0.03507844       0.00000000
Si      -0.19947105       3.51471411      -1.26511911       0.00000000
Si       0.53693469      -2.68957674       2.57922471       0.00000000
Si      -1.43009910      -1.93536603      -2.94559575       0.00000000
Si       2.25478035       1.64134782       2.61629002       0.00000000
