10
Lattice="16.28999089631971 0.0 0.0 0.0 16.28999089631971 0.0 0.0 0.0 34.25627252547053" Properties=species:S:1:pos:R:3:initial_magmoms:R:1 pbc="T T T"
Si      -1.90206927       0.71506584      -1.16375474       0.00000000
Si      -0.79452846      -1.86637788       1.25573288       0.00000000
Si       0.67829346       1.69714107       1.54793905       0.00000000
Si       1.91828501      -0.55539126      -1.33099396       0.00000000
Si       2.34680975       0.41648643       2.68692649       0.00000000
Si      -3.53142765       0.76595580       0.56283087       0.00000000
Si       1.34714946       3.47354928       0.15894919       0.00000000
Si      -1.28257686       2.66960520      -2.38975316       0.00000000
Si      -1.28176236      -3.61497906      -0.32046761       0.00000000
Si       1.00788578       3.05720946      -2.13334482       0.00000000
