10
Lattice="16.28999089631971 0.0 0.0 0.0 16.28999089631971 0.0 0.0 0.0 34.25627252547053" Properties=species:S:1:pos:R:3:initial_magmoms:R:1 pbc="T T T"
Si      -1.28410812      -1.93212432       0.27874345       0.00000000
Si      -1.34977311       1.09198386      -1.62193264       0.00000000
Si       2.22060393      -0.18145431      -0.97287868       0.00000000
Si      -0.84102012       0.90258003       2.21997898       0.00000000
Si       1.48724442       1.83600422       1.54828161       0.00000000
Si       1.17820683       1.91649962      -2.20956507       0.00000000
Si       0.86773572       3.35892374      -0.28141544       0.00000000
Si      -3.20572539       1.04195727       1.55283770       0.00000000
Si       3.57141033       0.94454307       0.58060989       0.00000000
Si       0.19947105      -3.51471411       1.26511911       0.00000000
