10
Lattice="16.28999089631971 0.0 0.0 0.0 16.28999089631971 0.0 0.0 0.0 34.25627252547053" Properties=species:S:1:pos:R:3:initial_magmoms:R:1 pbc="T T T"
Si       1.35080640       1.12599738       1.55348857       0.00000000
Si       0.36204525      -2.24438733      -0.66662744       0.00000000
Si      -2.22060393       0.18145431       0.97287868       0.00000000
Si      -1.04239710       2.09795393      -1.23668639       0.00000000
Si      -0.73335951       2.01745853       2.52116030       0.00000000
Si       0.20502594      -3.23151246       1.47870709       0.00000000
Si       2.96993483      -0.41241393       2.33727252       0.00000000
Si      -3.57037704       1.27343817      -0.64905396       0.00000000
Si      -1.35286821       3.54037805       0.69146325       0.00000000
Si       2.31650383       3.17716969       0.77066379       0.00000000
