10
Lattice="16.28999089631971 0.0 0.0 0.0 16.28999089631971 0.0 0.0 0.0 34.25627252547053" Properties=species:S:1:pos:R:3:initial_magmoms:R:1 pbc="T T T"
Si      -0.08643474      -1.71756873       1.46058551       0.00000000
Si       1.44824031      -0.53488215      -1.76207513       0.00000000
Si      -0.86108940       2.01191274       0.84003278       0.00000000
Si      -1.83133809      -1.93596876      -0.34256292       0.00000000
Si      -3.12212511       1.53829728       0.42580571       0.00000000
Si       3.02051528      -1.77266151      -0.47403856       0.00000000
Si      -3.31384212      -0.79043967       1.01042358       0.00000000
Si       1.73076593      -3.10417353       1.01391772       0.00000000
Si      -0.02862153      -1.53960048      -3.37558072       0.00000000
Si      -0.47869794       1.89747549       3.18076519       0.00000000
