10
Lattice="16.28999089631971 0.0 0.0 0.0 16.28999089631971 0.0 0.0 0.0 34.25627252547053" Properties=species:S:1:pos:R:3:initial_magmoms:R:1 pbc="T T T"
Si      -0.39631941      -2.31818103       0.17104166       0.00000000
Si       1.81359828      -0.47798118      -1.48350297       0.00000000
Si      -0.24979086       1.73521080       1.65101623       0.00000000
Si      -1.60169470       1.26516285      -1.36446235       0.00000000
Si       2.27848230       1.77209136      -0.50651353       0.00000000
Si      -2.57532587       1.43003394       1.90112142       0.00000000
Si       0.74577249      -2.81281059       2.12395860       0.00000000
Si       0.52445655       3.58443531       0.30611422       0.00000000
Si       3.50904519       0.72404163       1.27087416       0.00000000
Si       2.88359064      -1.55813850       1.95630830       0.00000000
