10
Lattice="16.28999089631971 0.0 0.0 0.0 16.28999089631971 0.0 0.0 0.0 34.25627252547053" Properties=species:S:1:pos:R:3:initial_magmoms:R:1 pbc="T T T"
Si       1.52995680       1.37515293       1.06931014       0.00000000
Si      -0.95278744      -1.80247221       1.14001513       0.00000000
Si       1.24620129      -1.08752040      -1.69630305       0.00000000
Si      -1.90016155       1.39404933      -0.32872337       0.00000000
Si      -3.00047858      -1.93561038       0.01493574       0.00000000
Si      -2.39149322       1.86774624       1.94394178       0.00000000
Si       3.55459203       0.41409180       0.42652509       0.00000000
Si       0.10410939      -0.59289084      -3.64921998       0.00000000
Si       1.33542162       3.47234382      -0.02288320       0.00000000
Si       0.53346492      -3.60966852       0.90508548       0.00000000
