10
Lattice="16.28999089631971 0.0 0.0 0.0 16.28999089631971 0.0 0.0 0.0 34.25627252547053" Properties=species:S:1:pos:R:3:initial_magmoms:R:1 pbc="T T T"
Si      -1.34703965      -1.32610374       1.37717829       0.00000000
Si      -1.51424835       1.23844725      -1.31323892       0.00000000
Si       1.36738260       1.38891798       1.37087513       0.00000000
Si       1.34154666      -1.47367485      -1.50354975       0.00000000
Si       0.40148334       2.07570438      -2.42186261       0.00000000
Si       2.29361571       0.45387198      -2.55792278       0.00000000
Si      -2.70413090      -2.68978851      -0.00559405       0.00000000
Si       2.72495862      -2.67905340       0.00722808       0.00000000
Si       0.00700470      -2.68442910       2.73304231       0.00000000
Si      -2.70818393       0.02950119       2.73249421       0.00000000
