10
Lattice="16.28999089631971 0.0 0.0 0.0 16.28999089631971 0.0 0.0 0.0 34.25627252547053" Properties=species:S:1:pos:R:3:initial_magmoms:R:1 pbc="T T T"
Si       1.35619961      -1.35671265      -1.36127652       0.00000000
Si      -1.35108177      -1.35003375       1.37710293       0.00000000
Si      -1.35932451       1.35949824      -1.36179036       0.00000000
Si       1.35882719       1.34434854       1.39073693       0.00000000
Si      -2.71313754       2.71489140      -0.00400799       0.00000000
Si       2.71657100      -2.71536381       0.00188410       0.00000000
Si       2.71399718       2.71827972      -0.00260348       0.00000000
Si       2.71435556       0.00105885      -2.71820249       0.00000000
Si      -2.71650957      -2.71617831      -0.00023979       0.00000000
Si      -0.00123679      -2.71441899      -2.71840803       0.00000000
