10
Lattice="16.28999089631971 0.0 0.0 0.0 16.28999089631971 0.0 0.0 0.0 34.25627252547053" Properties=species:S:1:pos:R:3:initial_magmoms:R:1 pbc="T T T"
Si       1.55015640       1.13568993      -1.34414293       0.00000000
Si      -1.34803008       1.38969026       1.37557167       0.00000000
Si       1.38681657      -1.32678792       1.40492246       0.00000000
Si      -0.94337019      -2.00396322      -1.03446910       0.00000000
Si       2.56029930      -0.53584326      -2.72710368       0.00000000
Si       2.74825332       2.63288984       0.04596509       0.00000000
Si       0.02252907      -2.69074962       2.75826865       0.00000000
Si      -2.69401088       0.02379969       2.76025551       0.00000000
Si       2.73241944      -2.73838158       0.07991308       0.00000000
Si       2.73412989       0.02264310       2.76525693       0.00000000
