10
Lattice="16.28999089631971 0.0 0.0 0.0 16.28999089631971 0.0 0.0 0.0 34.25627252547053" Properties=species:S:1:pos:R:3:initial_magmoms:R:1 pbc="T T T"
Si      -1.47381713       1.23847983      -1.28819757       0.00000000
Si       1.34891800       1.35329175       1.34288089       0.00000000
Si       1.18382699      -1.51172829      -1.34322003       0.00000000
Si      -1.36861631      -1.36189287       1.34798508       0.00000000
Si      -2.30029028      -0.57585150      -2.57815489       0.00000000
Si      -0.43736588      -2.58369174      -2.74370428       0.00000000
Si       2.70527553      -0.00504990       2.70285567       0.00000000
Si      -0.01028640       2.70985347       2.70271864       0.00000000
Si       2.69489880       2.71918232      -0.04180295       0.00000000
Si      -0.01010858      -2.72067435       2.70251311       0.00000000
