10
Lattice="16.28999089631971 0.0 0.0 0.0 16.28999089631971 0.0 0.0 0.0 34.25627252547053" Properties=species:S:1:pos:R:3:initial_magmoms:R:1 pbc="T T T"
Si      -1.34891800      -1.35329175      -1.34288089       0.00000000
Si       1.35635753      -1.35834165       1.35997478       0.00000000
Si      -1.35920440       1.35656172       1.35983775       0.00000000
Si       1.34598080       1.36589057      -1.38468384       0.00000000
Si      -2.71207716       2.71529443       0.00095918       0.00000000
Si       2.70790625       2.71982142      -0.00047959       0.00000000
Si       2.71653995      -2.71454931      -0.00198686       0.00000000
Si       2.71438967      -0.00037467       2.71707203       0.00000000
Si      -0.00092038       2.71510384       2.71679798       0.00000000
Si      -2.71753431      -2.71518462       0.00510419       0.00000000
