10
Lattice="16.28999089631971 0.0 0.0 0.0 16.28999089631971 0.0 0.0 0.0 34.61538196595647" Properties=species:S:1:pos:R:3:initial_magmoms:R:1 pbc="T T T"
Si      -1.35735443       1.35776661       1.35723527       0.00000000
Si       1.35785295      -1.35743346       1.35716604       0.00000000
Si       1.35808101       1.35701727      -1.35744296       0.00000000
Si      -1.35874139      -1.35945965      -1.35643912       0.00000000
Si      -0.00048707       2.71431636       2.71391669       0.00000000
Si      -2.71385603       0.00024924       2.71492054       0.00000000
Si      -2.71279718      -0.00144167      -2.71606285       0.00000000
Si       0.00080473      -2.71498492       2.71408977       0.00000000
Si       2.71507059      -0.00079984       2.71450516       0.00000000
Si      -2.71530584      -2.71446364       0.00034615       0.00000000
