10
Lattice="16.28999089631971 0.0 0.0 0.0 16.28999089631971 0.0 0.0 0.0 34.61538196595647" Properties=species:S:1:pos:R:3:initial_magmoms:R:1 pbc="T T T"
Si      -0.45783045      -2.23264224       0.62030799       0.00000000
Si       0.99963585       0.23776884      -2.15775104       0.00000000
Si       2.00555964       0.52268094       1.27806985       0.00000000
Si      -2.06645166       1.31874296      -0.06874619       0.00000000
Si       1.62056178      -3.17993832      -0.50856948       0.00000000
Si       0.19401390       2.36577782      -2.81572059       0.00000000
Si       1.15994574       1.16889451       3.38208398       0.00000000
Si      -2.02659003       2.43363545      -2.10250486       0.00000000
Si       2.73743676       2.69021924       0.49333870       0.00000000
Si       3.39270201      -0.13509297      -1.87691629       0.00000000
