10
Lattice="16.28999089631971 0.0 0.0 0.0 16.28999089631971 0.0 0.0 0.0 34.61538196595647" Properties=species:S:1:pos:R:3:initial_magmoms:R:1 pbc="T T T"
Si       1.35309627       1.34242632      -1.35293258       0.00000000
Si      -1.35708732       1.35466011       1.35540065       0.00000000
Si       1.35423657      -1.35944937       1.35391219       0.00000000
Si      -1.35032697      -1.36296801      -1.35760912       0.00000000
Si      -0.14441085       2.52643239      -2.70632207       0.00000000
Si       2.59752195      -0.04153950      -2.75875748       0.00000000
Si       2.71322982      -0.00110772       2.71125131       0.00000000
Si      -0.00027693       2.71277370       2.71180515       0.00000000
Si      -2.71381626       2.71143792      -0.00567693       0.00000000
Si      -2.71551042      -0.00166158       2.71159746       0.00000000
