10
Lattice="16.28999089631971 0.0 0.0 0.0 16.28999089631971 0.0 0.0 0.0 34.61538196595647" Properties=species:S:1:pos:R:3:initial_magmoms:R:1 pbc="T T T"
Si       1.75932000       1.04913464       1.09425307       0.00000000
Si      -0.89052543      -1.84792687       1.09821307       0.00000000
Si       0.84561390      -0.64621357      -2.10401413       0.00000000
Si      -1.79745489       1.67099725      -0.15860770       0.00000000
Si      -2.28206610      -0.38020598       2.52265414       0.00000000
Si       0.45393714       2.34519148       2.55499877       0.00000000
Si       1.57749102       1.52132473      -2.88874528       0.00000000
Si      -1.15994574      -1.16889451      -3.38208398       0.00000000
Si      -1.03658157       3.48283621       1.14506155       0.00000000
Si       2.24077095       2.98432963      -0.79409812       0.00000000
