10
Lattice="16.28999089631971 0.0 0.0 0.0 16.28999089631971 0.0 0.0 0.0 34.61538196595647" Properties=species:S:1:pos:R:3:initial_magmoms:R:1 pbc="T T T"
Si      -1.35290079       1.35559064      -1.36041989       0.00000000
Si      -1.35609363      -1.35788258       1.35730450       0.00000000
Si       1.35897696       1.35760897       1.35702758       0.00000000
Si       1.35962856      -1.35771968      -1.36183912       0.00000000
Si       0.00918756       2.71133403      -2.71200592       0.00000000
Si      -2.71329498       2.71439655      -0.00038077       0.00000000
Si      -2.71352304      -0.00005419       2.71422823       0.00000000
Si       2.71375110       2.71485267      -0.00048462       0.00000000
Si      -2.71502172      -2.71443233      -0.00062308       0.00000000
Si       0.00172674       2.71517847       2.71471285       0.00000000
