10
Lattice="16.28999089631971 0.0 0.0 0.0 16.28999089631971 0.0 0.0 0.0 34.61538196595647" Properties=species:S:1:pos:R:3:initial_magmoms:R:1 pbc="T T T"
Si       0.54874494      -1.04863617      -1.97470480       0.00000000
Si       0.19202652       2.12641515      -0.95233892       0.00000000
Si       1.53262836       0.05225832       1.80322010       0.00000000
Si      -2.37115611      -0.14877657       0.23586934       0.00000000
Si       1.13986017       2.22166278       2.63011281       0.00000000
Si      -0.39837195       0.46879362      -3.58629404       0.00000000
Si      -2.00687913       2.53174293      -1.86307013       0.00000000
Si       1.42840494       3.41542656       0.56623873       0.00000000
Si      -3.11661909      -1.06614792      -1.90633938       0.00000000
Si       2.77061949      -0.62727903      -2.58646279       0.00000000
