10
Lattice="16.28999089631971 0.0 0.0 0.0 16.28999089631971 0.0 0.0 0.0 34.61538196595647" Properties=species:S:1:pos:R:3:initial_magmoms:R:1 pbc="T T T"
Si      -0.62465634      -1.03250907      -2.06387407       0.00000000
Si       2.00956698      -0.81568917       1.05036974       0.00000000
Si       0.34042842       2.32507170      -0.62584646       0.00000000
Si      -1.75658328      -0.53983431       1.59892000       0.00000000
Si       2.44306017       2.47757868       0.36335787       0.00000000
Si      -2.92410387      -0.70336962      -1.79965471       0.00000000
Si       2.58807375       1.16791155       2.27675879       0.00000000
Si      -3.12562746      -1.91087564       0.25054627       0.00000000
Si       1.13925744      -2.61464437       2.37129345       0.00000000
Si      -0.09356976       0.52126371      -3.71762487       0.00000000
