10
Lattice="16.28999089631971 0.0 0.0 0.0 16.28999089631971 0.0 0.0 0.0 34.61538196595647" Properties=species:S:1:pos:R:3:initial_magmoms:R:1 pbc="T T T"
Si       1.49750712      -1.18400607       1.35338950       0.00000000
Si      -1.21498965       1.53912807       1.33379372       0.00000000
Si       1.72164123       1.01203254      -1.38177209       0.00000000
Si      -1.18778535      -1.62733842      -1.41278749       0.00000000
Si       0.20608479       0.25083342      -3.43550385       0.00000000
Si       0.14441085      -2.52643239       2.70632207       0.00000000
Si      -2.56940541       0.18500553       2.70064515       0.00000000
Si       2.74193280      -2.56797189      -0.05243541       0.00000000
Si      -2.61187344       2.82126510      -0.09596082       0.00000000
Si      -2.69643483      -2.75175567      -0.06122426       0.00000000
