10
Lattice="16.28999089631971 0.0 0.0 0.0 16.28999089631971 0.0 0.0 0.0 34.61538196595647" Properties=species:S:1:pos:R:3:initial_magmoms:R:1 pbc="T T T"
Si       1.85595228       0.93975381       1.11516977       0.00000000
Si       1.35005004      -1.24326909      -1.49445072       0.00000000
Si      -1.04114277      -1.63126431       1.43196992       0.00000000
Si      -1.34807895       1.47657447      -1.47693533       0.00000000
Si       0.76462002       3.11354028       1.36284297       0.00000000
Si      -1.04699088       2.21385987       2.52398199       0.00000000
Si      -2.71223613      -2.57282631       0.00730385       0.00000000
Si       2.90910078      -2.37697164      -0.12471929       0.00000000
Si       1.17537237       1.50273621       3.30151313       0.00000000
Si       0.00544086      -2.59903692      -2.86158600       0.00000000
