10
Lattice="16.28999089631971 0.0 0.0 0.0 16.28999089631971 0.0 0.0 0.0 34.61538196595647" Properties=species:S:1:pos:R:3:initial_magmoms:R:1 pbc="T T T"
Si       0.75942351      -1.25581239      -1.77871240       0.00000000
Si      -2.32872066       0.32221620       0.28665014       0.00000000
Si       1.49330430       1.78613334       0.47655023       0.00000000
Si       0.94711689      -1.51742979       1.61158924       0.00000000
Si      -1.60850718       2.06294931       1.72322391       0.00000000
Si       0.59039847       1.65762153       2.63395512       0.00000000
Si       3.16899144      -1.09607265       0.99983125       0.00000000
Si      -1.14179868      -2.66955633      -1.99464327       0.00000000
Si      -2.71824714      -1.53494154       1.67995466       0.00000000
Si       0.39837195      -0.46879362       3.58629404       0.00000000
