10
Lattice="16.28999089631971 0.0 0.0 0.0 16.28999089631971 0.0 0.0 0.0 34.61538196595647" Properties=species:S:1:pos:R:3:initial_magmoms:R:1 pbc="T T T"
Si      -1.23637842      -1.28901141      -1.51857766       0.00000000
Si       2.25727272      -0.72189135      -0.07968465       0.00000000
Si      -0.28854477      -1.19376378       2.06387407       0.00000000
Si      -0.67137606       2.24267688      -0.64685800       0.00000000
Si      -2.44701864      -0.39060162       2.41362809       0.00000000
Si       3.06722781       1.05554313       1.28717370       0.00000000
Si       0.10422342      -3.36316824       1.23698137       0.00000000
Si       0.24882975       3.40682544       1.11298900       0.00000000
Si      -1.42840494      -3.41542656      -0.56623873       0.00000000
Si       2.91301038      -0.39957741      -2.35730883       0.00000000
