10
Lattice="16.28999089631971 0.0 0.0 0.0 16.28999089631971 0.0 0.0 0.0 34.61538196595647" Properties=species:S:1:pos:R:3:initial_magmoms:R:1 pbc="T T T"
Si       2.10263175       0.15250698       0.98920432       0.00000000
Si      -1.37624436       1.50519600       1.17713134       0.00000000
Si      -0.34042842      -2.32507170       0.62584646       0.00000000
Si      -0.82676637       0.36559647      -2.26488571       0.00000000
Si      -0.43399818      -1.80380799      -3.09177841       0.00000000
Si      -2.11009257       2.88319968      -0.54124641       0.00000000
Si      -3.44479743       0.41616063       1.29610447       0.00000000
Si      -2.98524024       1.16875863      -1.91513169       0.00000000
Si      -0.96508476      -3.35758077      -1.43802762       0.00000000
Si       2.24764533      -1.15716015       2.90260525       0.00000000
