10
Lattice="16.28999089631971 0.0 0.0 0.0 16.28999089631971 0.0 0.0 0.0 34.61538196595647" Properties=species:S:1:pos:R:3:initial_magmoms:R:1 pbc="T T T"
Si       0.86314194      -0.76307247       2.08627024       0.00000000
Si      -2.14107615       1.02258846       0.35435786       0.00000000
Si      -0.84145995      -1.21432176      -1.93264709       0.00000000
Si       2.25701208       1.11509937       0.06355388       0.00000000
Si      -0.55359936       0.47866536      -3.48532091       0.00000000
Si       2.63184498      -2.38599630       1.49867380       0.00000000
Si       0.79418637      -2.80240128      -2.55665893       0.00000000
Si       2.23260966       2.69415423      -1.68673928       0.00000000
Si       3.88826010      -0.68419629       0.22718088       0.00000000
Si      -0.64550754      -1.88748972       3.43783347       0.00000000
