10
Lattice="16.28999089631971 0.0 0.0 0.0 16.28999089631971 0.0 0.0 0.0 34.61538196595647" Properties=species:S:1:pos:R:3:initial_magmoms:R:1 pbc="T T T"
Si       0.68057991      -0.56298240      -2.18634336       0.00000000
Si      -2.22236325       0.71112366      -0.77753114       0.00000000
Si      -0.55838862      -1.09268433       2.18945875       0.00000000
Si      -0.41075235       1.61080407      -1.93867017       0.00000000
Si       2.75646348       0.30467187      -0.93354276       0.00000000
Si       0.51108246       0.54423261       3.47628629       0.00000000
Si      -3.39706773      -1.19223252       0.08037696       0.00000000
Si       0.72736479       2.72228706       2.36028575       0.00000000
Si      -1.17537237      -1.50273621      -3.30151313       0.00000000
Si       2.64606615      -2.02020435      -2.12947026       0.00000000
