10
Lattice="16.28999089631971 0.0 0.0 0.0 16.28999089631971 0.0 0.0 0.0 34.61538196595647" Properties=species:S:1:pos:R:3:initial_magmoms:R:1 pbc="T T T"
Si      -0.68057991       0.56298240       2.18634336       0.00000000
Si      -1.85595228      -0.93975381      -1.11516977       0.00000000
Si       0.83295657       1.92235032      -1.24615445       0.00000000
Si      -1.09133226       2.17378647       0.24767320       0.00000000
Si       1.96548624      -1.45722195       0.05687310       0.00000000
Si       2.07588357       0.86765427       1.25280060       0.00000000
Si      -0.50590224      -2.18302290      -2.60962049       0.00000000
Si      -2.90294316       1.27410606       1.40881222       0.00000000
Si       2.22229809       0.55465821      -2.62464357       0.00000000
Si       1.05314850      -3.31672545      -1.23988906       0.00000000
