10
Lattice="16.28999089631971 0.0 0.0 0.0 16.28999089631971 0.0 0.0 0.0 34.61538196595647" Properties=species:S:1:pos:R:3:initial_magmoms:R:1 pbc="T T T"
Si      -1.42395777      -0.09215253      -1.83136242       0.00000000
Si       1.49260383      -1.62184869      -0.86749657       0.00000000
Si      -1.13738409      -0.54340182       2.01163943       0.00000000
Si       1.64755431       1.77370148       0.12326544       0.00000000
Si       2.02313655      -0.46410210      -2.82821675       0.00000000
Si       2.96121249       0.70436331       1.76767008       0.00000000
Si       3.17496987      -1.41543810       0.72643881       0.00000000
Si       0.01060479      -2.38151655       2.86518600       0.00000000
Si      -0.07444530       0.30240756      -3.71949410       0.00000000
Si      -3.04632774       1.57982049      -1.49019303       0.00000000
