10
Lattice="16.28999089631971 0.0 0.0 0.0 16.28999089631971 0.0 0.0 0.0 34.61538196595647" Properties=species:S:1:pos:R:3:initial_magmoms:R:1 pbc="T T T"
Si       0.59614884       1.60634061       1.57444691       0.00000000
Si       1.14798888      -1.83811473       0.85354657       0.00000000
Si       1.13738409       0.54340182      -2.01163943       0.00000000
Si      -2.26900152      -0.68077539      -0.45387714       0.00000000
Si      -1.59920559      -2.62528011      -1.66423926       0.00000000
Si      -0.17945064      -3.56764032       0.01623462       0.00000000
Si       2.98921500       1.23347880       1.85528166       0.00000000
Si      -3.17823439       1.27053855      -1.61622770       0.00000000
Si      -0.20947311       3.73434959       0.91647737       0.00000000
Si      -0.28657368       0.45124929      -3.84300185       0.00000000
