10
Lattice="16.28999089631971 0.0 0.0 0.0 16.28999089631971 0.0 0.0 0.0 34.61538196595647" Properties=species:S:1:pos:R:3:initial_magmoms:R:1 pbc="T T T"
Si      -2.22060393       0.06785762       0.71321573       0.00000000
Si       1.36904418       1.37104133       1.34837373       0.00000000
Si       0.80562195      -2.12800898       0.65796955       0.00000000
Si       0.20152359       1.20750602      -2.05020099       0.00000000
Si       2.50097112       0.87836657      -2.31442035       0.00000000
Si      -0.26660214       2.95912085       1.97238557       0.00000000
Si      -2.50294710       2.37000929       1.05885051       0.00000000
Si       3.12562746       1.91087564      -0.25054627       0.00000000
Si      -0.19401390      -2.36577782       2.81572059       0.00000000
Si      -2.26046556      -1.04703486       2.74697440       0.00000000
