10
Lattice="16.28999089631971 0.0 0.0 0.0 16.28999089631971 0.0 0.0 0.0 34.61538196595647" Properties=species:S:1:pos:R:3:initial_magmoms:R:1 pbc="T T T"
Si       0.34676523       1.17535608       1.94365478       0.00000000
Si       1.29707496      -1.69186311      -1.01828126       0.00000000
Si      -2.07826191      -1.12593222      -0.04773464       0.00000000
Si      -0.30612168       1.91891313      -1.41608145       0.00000000
Si      -2.14734780      -1.15268040      -2.41781655       0.00000000
Si       0.05193252      -1.69694559      -3.03071685       0.00000000
Si      -1.69326405       2.57668704       1.73890468       0.00000000
Si       2.10044889       2.68548795       1.41050837       0.00000000
Si       0.76007511       3.71601520      -0.23413857       0.00000000
Si       0.92256786      -0.28574289       3.71697483       0.00000000
