10
Lattice="16.28999089631971 0.0 0.0 0.0 16.28999089631971 0.0 0.0 0.0 34.61538196595647" Properties=species:S:1:pos:R:3:initial_magmoms:R:1 pbc="T T T"
Si      -1.35661491       1.35705789      -1.35799681       0.00000000
Si      -1.35798327      -1.35892235       1.35661219       0.00000000
Si       1.35967743       1.35737880       1.35675065       0.00000000
Si       1.35853713      -1.35799382      -1.35761604       0.00000000
Si      -2.71386513       2.71462739      -0.00031154       0.00000000
Si      -0.00184077       2.71430159      -2.71550900       0.00000000
Si      -2.71440270      -2.71558613      -0.00003462       0.00000000
Si       0.00003258      -2.71602596      -2.71447054       0.00000000
Si      -2.71559187      -0.00055108      -2.71502439       0.00000000
Si       2.71542897       2.71519754       0.00003462       0.00000000
