10
Lattice="16.28999089631971 0.0 0.0 0.0 16.28999089631971 0.0 0.0 0.0 34.61538196595647" Properties=species:S:1:pos:R:3:initial_magmoms:R:1 pbc="T T T"
Si      -1.35451350       1.35695570      -1.36086989       0.00000000
Si       1.35861858      -1.35778161      -1.36114681       0.00000000
Si       1.35940050       1.33782799       1.38288528       0.00000000
Si      -1.34454402      -1.34976693       1.40130068       0.00000000
Si      -2.71476108      -2.71403814       0.00259616       0.00000000
Si       2.71435383       2.71640345       0.00235385       0.00000000
Si       2.71578735      -2.71499925      -0.00041538       0.00000000
Si      -2.71419093      -0.00042310      -2.71762054       0.00000000
Si      -2.71718829       2.71498622       0.00020769       0.00000000
Si       0.00123804       2.71477445      -2.71758593       0.00000000
