10
Lattice="16.28999089631971 0.0 0.0 0.0 16.28999089631971 0.0 0.0 0.0 34.61538196595647" Properties=species:S:1:pos:R:3:initial_magmoms:R:1 pbc="T T T"
Si      -0.63689013       2.12607306      -0.75399267       0.00000000
Si       2.30091363       0.49296798      -0.16099623       0.00000000
Si      -1.04500350      -1.48467060      -1.54561228       0.00000000
Si      -0.65573766      -0.32231394       2.27762418       0.00000000
Si       3.10041054      -1.24396956       1.10506207       0.00000000
Si      -3.24648297      -0.76092219      -1.31867371       0.00000000
Si       0.53548488       3.48381198       0.70701957       0.00000000
Si       2.76916968      -0.34472898      -2.31403958       0.00000000
Si       2.56518630       2.39580288       1.19956212       0.00000000
Si       1.95030396      -3.13624854       0.35314632       0.00000000
