10
Lattice="16.28999089631971 0.0 0.0 0.0 16.28999089631971 0.0 0.0 0.0 34.61538196595647" Properties=species:S:1:pos:R:3:initial_magmoms:R:1 pbc="T T T"
Si      -2.25727272       0.72189135       0.07968465       0.00000000
Si       0.80995509       1.77743448       1.36685835       0.00000000
Si       0.65573766       0.32231394      -2.27762418       0.00000000
Si       0.15684012      -2.34271377       0.79421577       0.00000000
Si      -2.54581749      -0.47187243       2.14355873       0.00000000
Si      -2.15304930      -2.64127689       1.31666602       0.00000000
Si       0.50448501      -3.52784385      -1.24009675       0.00000000
Si       3.09312891       1.87530480       1.13292747       0.00000000
Si      -3.49365114      -0.56712006      -1.43889300       0.00000000
Si       0.01884753       2.44838700      -3.03161685       0.00000000
