10
Lattice="16.28999089631971 0.0 0.0 0.0 16.28999089631971 0.0 0.0 0.0 34.61538196595647" Properties=species:S:1:pos:R:3:initial_magmoms:R:1 pbc="T T T"
Si      -1.34996859      -1.34166069       1.35536604       0.00000000
Si      -1.35278676       1.35470898      -1.35671604       0.00000000
Si       1.35954711      -1.35819504      -1.35668142       0.00000000
Si       1.35291708       1.35324288       1.37755451       0.00000000
Si       0.14364522      -2.53325790       2.73555132       0.00000000
Si      -2.71192662      -0.00140094      -2.71384746       0.00000000
Si       0.00289962       2.71366965      -2.71388208       0.00000000
Si      -2.71339272       2.71526607       0.00681923       0.00000000
Si       0.00260640      -2.71625976      -2.71412439       0.00000000
Si       2.71715571       2.71430496       0.00380769       0.00000000
