10
Lattice="16.28999089631971 0.0 0.0 0.0 16.28999089631971 0.0 0.0 0.0 34.61538196595647" Properties=species:S:1:pos:R:3:initial_magmoms:R:1 pbc="T T T"
Si       1.35278676      -1.35470898       1.35671604       0.00000000
Si       1.35568638       1.35896067      -1.35716604       0.00000000
Si      -1.35913986      -1.35610992      -1.35713142       0.00000000
Si      -1.36060596       1.36055709       1.36353527       0.00000000
Si       0.00281817      -2.69636967       2.71208208       0.00000000
Si       2.71233387      -2.71290402       0.00003462       0.00000000
Si       2.71319724       0.00156384      -2.71453977       0.00000000
Si      -2.71510317      -2.71324611      -0.00024231       0.00000000
Si      -0.00175932      -2.71391400      -2.71478208       0.00000000
Si       2.71277370       2.71681362      -0.00020769       0.00000000
