10
Lattice="16.28999089631971 0.0 0.0 0.0 16.28999089631971 0.0 0.0 0.0 34.61538196595647" Properties=species:S:1:pos:R:3:initial_magmoms:R:1 pbc="T T T"
Si      -2.13949602      -0.34098228      -1.03555435       0.00000000
Si       1.27757583      -0.87013035      -1.93614324       0.00000000
Si      -0.39794841       2.28680649       1.17193903       0.00000000
Si      -0.99458595      -2.88104940      -0.14254622       0.00000000
Si       2.55147012       0.34645572       2.23328185       0.00000000
Si      -2.14739667       2.14459479      -2.00630866       0.00000000
Si      -2.51574615       3.05352792       0.16902700       0.00000000
Si      -0.49946769      -1.84557555      -3.53281324       0.00000000
Si      -2.27825424      -1.08914940       3.13733228       0.00000000
Si       1.12780557      -3.55995144       1.57728538       0.00000000
