10
Lattice="16.28999089631971 0.0 0.0 0.0 16.28999089631971 0.0 0.0 0.0 34.61538196595647" Properties=species:S:1:pos:R:3:initial_magmoms:R:1 pbc="T T T"
Si       0.93993300      -0.13988223      -2.14570488       0.00000000
Si      -2.25973251       0.18270864       0.61757337       0.00000000
Si       0.55866555      -2.16857367       0.79175807       0.00000000
Si       0.94721463       1.62336366       1.45381224       0.00000000
Si       0.11507256      -1.59334119       3.02614761       0.00000000
Si      -3.17993832      -0.98143992      -1.14227363       0.00000000
Si      -2.08277424      -0.81834444       2.76040518       0.00000000
Si       2.84183937      -2.07070335       0.55782719       0.00000000
Si       2.96963442      -1.22789133      -1.65316234       0.00000000
Si       1.57900599       0.29335032       3.24360156       0.00000000
