10
Lattice="16.28999089631971 0.0 0.0 0.0 16.28999089631971 0.0 0.0 0.0 34.61538196595647" Properties=species:S:1:pos:R:3:initial_magmoms:R:1 pbc="T T T"
Si       2.28317382       0.09787032      -0.23393088       0.00000000
Si      -0.44359299       0.57523248       2.23438954       0.00000000
Si      -0.55866555       2.16857367      -0.79175807       0.00000000
Si      -0.80995509      -1.77743448      -1.36685835       0.00000000
Si      -3.06722781      -1.05554313      -1.28717370       0.00000000
Si       2.41096887       0.94068234      -2.44492041       0.00000000
Si      -2.64143979       1.35022923       1.96864710       0.00000000
Si       0.38126745       2.02869144      -2.93746296       0.00000000
Si       2.91143025       1.30934133       1.68345081       0.00000000
Si       1.02034044       2.46192399       2.45184349       0.00000000
