10
Lattice="16.28999089631971 0.0 0.0 0.0 16.28999089631971 0.0 0.0 0.0 34.61538196595647" Properties=species:S:1:pos:R:3:initial_magmoms:R:1 pbc="T T T"
Si      -2.16375183       0.73762749       0.27536552       0.00000000
Si      -0.13874193      -1.00849761      -2.14989334       0.00000000
Si       0.66446910      -1.87401789       1.44436224       0.00000000
Si       1.63980027       1.99953234      -0.06732696       0.00000000
Si       1.17411804       1.32774903       2.35845114       0.00000000
Si       3.31279956       0.56873277      -1.14767363       0.00000000
Si       2.15684487      -0.87887808      -2.71315515       0.00000000
Si       0.11062539       3.23265276      -1.54471228       0.00000000
Si      -2.12729481       2.83064814      -0.79594654       0.00000000
Si      -1.36049193      -2.95924140      -2.01973944       0.00000000
