10
Lattice="16.28999089631971 0.0 0.0 0.0 16.28999089631971 0.0 0.0 0.0 34.61538196595647" Properties=species:S:1:pos:R:3:initial_magmoms:R:1 pbc="T T T"
Si      -1.83337434      -0.95400756       1.13587393       0.00000000
Si      -0.57580263       1.46109897      -1.77332005       0.00000000
Si       1.09711521       1.74734685       1.27114054       0.00000000
Si       1.88533944      -1.84516830      -0.17993851       0.00000000
Si      -0.32863446      -2.28991788       2.64511581       0.00000000
Si       2.41987950       0.43552944       2.68160391       0.00000000
Si      -0.92256786       0.28574289      -3.71697483       0.00000000
Si       2.49706152       2.91429729      -0.22081930       0.00000000
Si       0.93794562      -3.62920023       1.11938316       0.00000000
Si       1.17788103       2.97123084      -2.30646646       0.00000000
