10
Lattice="16.28999089631971 0.0 0.0 0.0 16.28999089631971 0.0 0.0 0.0 34.61538196595647" Properties=species:S:1:pos:R:3:initial_magmoms:R:1 pbc="T T T"
Si       1.36190916       1.36456443      -1.34843257       0.00000000
Si      -1.35904212       1.35606105       1.36346604       0.00000000
Si       1.35764118      -1.35894438       1.36322373       0.00000000
Si      -1.38660480      -1.36088289      -1.38492067       0.00000000
Si       2.62687653      -0.01172880      -2.75607825       0.00000000
Si      -2.71225242      -2.71257822       0.00245769       0.00000000
Si      -2.71503801       2.71381626       0.00107308       0.00000000
Si       2.71494027       2.71425609       0.00675000       0.00000000
Si       2.71278999      -2.71814940       0.00366923       0.00000000
Si       2.71415835      -0.00052128       2.72007824       0.00000000
