10
Lattice="16.28999089631971 0.0 0.0 0.0 16.28999089631971 0.0 0.0 0.0 34.61538196595647" Properties=species:S:1:pos:R:3:initial_magmoms:R:1 pbc="T T T"
Si       1.32276429      -1.31181741       1.41046337       0.00000000
Si       1.39994631       1.16695044      -1.49195984       0.00000000
Si      -1.39971825       1.40255271       1.37487528       0.00000000
Si      -1.09711521      -1.74734685      -1.27114054       0.00000000
Si      -1.67291784      -0.28624788      -3.04446059       0.00000000
Si       2.63353914       2.61349985      -0.10249966       0.00000000
Si       2.58773166      -2.68811064       0.00281769       0.00000000
Si       0.08076582       1.22388399      -3.57760700       0.00000000
Si      -0.03914487      -2.67638184       2.75889595       0.00000000
Si       2.67579540       0.03787425       2.76564595       0.00000000
