10
Lattice="16.28999089631971 0.0 0.0 0.0 16.28999089631971 0.0 0.0 0.0 34.61538196595647" Properties=species:S:1:pos:R:3:initial_magmoms:R:1 pbc="T T T"
Si       1.22034906       1.96106743      -0.56637720       0.00000000
Si       1.26977292      -2.01934098      -0.40704250       0.00000000
Si      -2.24376831       0.25102890      -0.93316199       0.00000000
Si      -0.21649410       0.36111672       2.41660501       0.00000000
Si      -1.38821751       1.41823251      -2.74700902       0.00000000
Si      -0.37978506      -3.46905324       0.41517712       0.00000000
Si      -2.45532654      -0.30843486       2.51065506       0.00000000
Si      -2.24156916      -2.42823627       1.46942379       0.00000000
Si       3.31511274       1.46652910       0.43463098       0.00000000
Si      -3.76898472       0.76090331       0.86625042       0.00000000
