10
Lattice="16.28999089631971 0.0 0.0 0.0 16.28999089631971 0.0 0.0 0.0 34.61538196595647" Properties=species:S:1:pos:R:3:initial_magmoms:R:1 pbc="T T T"
Si      -1.68236604      -0.20641059      -1.59393538       0.00000000
Si      -0.96508476      -1.51034364       1.52584689       0.00000000
Si      -0.21375738       2.11980141       1.04123127       0.00000000
Si       1.86178410      -1.04081697      -1.05424666       0.00000000
Si      -1.34516304      -2.48147199      -1.89048553       0.00000000
Si       2.49357546      -2.37083031       0.73554266       0.00000000
Si      -3.17496987       1.41543810      -0.72643881       0.00000000
Si       2.02507506       2.78935299       0.94718123       0.00000000
Si      -1.52741556       3.18913958      -0.60317337       0.00000000
Si      -0.00219915       2.67926517      -2.40258577       0.00000000
