10
Lattice="16.28999089631971 0.0 0.0 0.0 16.28999089631971 0.0 0.0 0.0 34.61538196595647" Properties=species:S:1:pos:R:3:initial_magmoms:R:1 pbc="T T T"
Si       1.23359283       1.44654941       1.38946017       0.00000000
Si      -1.39994631      -1.16695044       1.49195984       0.00000000
Si       1.69119522      -1.08054828      -1.32393525       0.00000000
Si      -1.31918049       0.05693355      -2.08564716       0.00000000
Si       0.59364018      -0.35349300      -3.33730546       0.00000000
Si      -3.07286415      -1.45319832      -1.55250075       0.00000000
Si       2.66839974      -2.64585438       0.16116931       0.00000000
Si      -0.07718202      -2.47876785       2.90242321       0.00000000
Si       2.80828197       2.58768998       0.14455392       0.00000000
Si      -2.49706152      -2.91429729       0.22081930       0.00000000
