10
Lattice="16.28999089631971 0.0 0.0 0.0 16.28999089631971 0.0 0.0 0.0 34.61538196595647" Properties=species:S:1:pos:R:3:initial_magmoms:R:1 pbc="T T T"
Si      -1.35940050      -1.33782799      -1.38288528       0.00000000
Si      -1.24712982       1.42179283       1.41635838       0.00000000
Si       1.35495333       1.37857546      -1.38053144       0.00000000
Si       1.38401469      -1.41425449       1.53882767       0.00000000
Si       0.56606121       2.17056268       2.88675139       0.00000000
Si      -2.70394452      -2.68759492       0.01841539       0.00000000
Si       2.42194833       0.33669964       2.94840142       0.00000000
Si       2.72323188      -2.69417608      -0.00522693       0.00000000
Si      -0.00078192      -2.69560960      -2.74403209       0.00000000
Si      -2.69420310       2.74744045      -0.01221924       0.00000000
