10
Lattice="16.28999089631971 0.0 0.0 0.0 16.28999089631971 0.0 0.0 0.0 34.61538196595647" Properties=species:S:1:pos:R:3:initial_magmoms:R:1 pbc="T T T"
Si       1.37420878       1.37402892       1.34854680       0.00000000
Si      -1.29103137       1.43565399      -1.41583914       0.00000000
Si       1.42088126      -1.30369685      -1.42286607       0.00000000
Si      -1.58436540      -0.97722081       1.52612381       0.00000000
Si       1.76815637       0.03473028       3.28901697       0.00000000
Si      -2.62229904      -2.72817494       0.11655006       0.00000000
Si      -3.44025252       0.85664223       1.46447378       0.00000000
Si       2.65742747      -2.77706123       0.06583849       0.00000000
Si      -2.65136040       0.06465501      -2.80280904       0.00000000
Si       0.06686013      -2.65407173      -2.80464366       0.00000000
