10
Lattice="16.28999089631971 0.0 0.0 0.0 16.28999089631971 0.0 0.0 0.0 34.61538196595647" Properties=species:S:1:pos:R:3:initial_magmoms:R:1 pbc="T T T"
Si      -1.81319103      -0.74876985      -1.47039302       0.00000000
Si       0.83847888       1.99125702      -1.22175059       0.00000000
Si      -1.46706111       0.02212182       2.00236250       0.00000000
Si       1.85588712      -1.83386304       0.06165003       0.00000000
Si       2.14922115       0.57901176      -2.88031293       0.00000000
Si      -0.56606121      -2.17056268      -2.88675139       0.00000000
Si       3.44025252      -0.85664223      -1.46447378       0.00000000
Si       0.81795348      -3.58481717      -1.34792373       0.00000000
Si      -3.58523352      -1.59498648      -0.14361930       0.00000000
Si      -2.69083107      -2.05103155       2.02877406       0.00000000
