10
Lattice="16.28999089631971 0.0 0.0 0.0 16.28999089631971 0.0 0.0 0.0 34.61538196595647" Properties=species:S:1:pos:R:3:initial_magmoms:R:1 pbc="T T T"
Si       1.35629616       1.35645201      -1.35816989       0.00000000
Si       1.35303111      -1.35927018       1.36035066       0.00000000
Si      -1.35821133       1.35516510       1.36035066       0.00000000
Si      -1.35856971      -1.35892809      -1.35761604       0.00000000
Si       2.71268315       2.71510317      -0.00058846       0.00000000
Si       2.71340154      -0.00094482      -2.71523208       0.00000000
Si      -0.00146610       2.71407690      -2.71554362       0.00000000
Si       2.71292913      -2.71691136      -0.00155769       0.00000000
Si      -0.00144981      -2.71590138      -2.71530131       0.00000000
Si      -2.71656927      -0.00063531      -2.71516285       0.00000000
