10
Lattice="16.28999089631971 0.0 0.0 0.0 16.28999089631971 0.0 0.0 0.0 34.61538196595647" Properties=species:S:1:pos:R:3:initial_magmoms:R:1 pbc="T T T"
Si      -0.99422757      -1.08484884       1.73329699       0.00000000
Si       2.25138293      -0.05284476      -0.32143862       0.00000000
Si      -0.95387724       2.08932282      -0.04787310       0.00000000
Si       2.25444545      -2.36638314      -0.73041958       0.00000000
Si       1.86049786      -1.02708450      -2.67088975       0.00000000
Si      -3.10987503       1.56019104       1.01682741       0.00000000
Si      -3.30336765      -0.79584795       1.43795839       0.00000000
Si      -1.24545195       2.42523891      -2.49237813       0.00000000
Si       3.34243826      -0.31991931       1.82229319       0.00000000
Si       0.20191455      -3.80414831      -0.37907326       0.00000000
