10
Lattice="16.28999089631971 0.0 0.0 0.0 16.28999089631971 0.0 0.0 0.0 34.61538196595647" Properties=species:S:1:pos:R:3:initial_magmoms:R:1 pbc="T T T"
Si      -0.77581125       2.08238328       0.58489644       0.00000000
Si      -1.35498591      -1.64748915       1.02132742       0.00000000
Si       2.43905350      -0.25458012      -0.11727698       0.00000000
Si      -0.80743014       0.37095588      -3.10894765       0.00000000
Si       1.98446965      -2.47752981      -0.92921583       0.00000000
Si       0.32047317      -3.29804082       0.67731956       0.00000000
Si       1.39185737       3.07661085      -0.46858869       0.00000000
Si      -2.90224269       2.22449724      -0.56295027       0.00000000
Si      -1.58092821      -1.04575284       3.33114391       0.00000000
Si       3.23016758      -0.07097553       2.15023950       0.00000000
