10
Lattice="16.28999089631971 0.0 0.0 0.0 16.28999089631971 0.0 0.0 0.0 34.61538196595647" Properties=species:S:1:pos:R:3:initial_magmoms:R:1 pbc="T T T"
Si      -1.40170563      -1.76761161       0.54778873       0.00000000
Si       2.11510989      -0.55361565       0.81145424       0.00000000
Si       0.22594230      -0.60173631      -2.30981650       0.00000000
Si      -1.22170113       2.04358050       0.50181947       0.00000000
Si      -3.43140705      -0.67960251       0.05524618       0.00000000
Si      -3.10164858       1.44770859      -0.82083501       0.00000000
Si       0.27103302       3.57405858      -0.47682715       0.00000000
Si       2.98869113      -2.31741540      -0.49790793       0.00000000
Si       1.58092821       1.04575284      -3.33114391       0.00000000
Si       1.98162963      -1.47123135       2.93344757       0.00000000
