10
Lattice="16.28999089631971 0.0 0.0 0.0 16.28999089631971 0.0 0.0 0.0 34.61538196595647" Properties=species:S:1:pos:R:3:initial_magmoms:R:1 pbc="T T T"
Si       1.35656445       1.35500399      -1.35678527       0.00000000
Si      -1.35715248       1.35721529       1.35706219       0.00000000
Si      -1.35751086      -1.35679410      -1.35730450       0.00000000
Si       1.35797860      -1.35804843       1.35664681       0.00000000
Si      -2.71370223      -0.00019548      -2.71357054       0.00000000
Si      -2.71397916       2.71406617      -0.00010385       0.00000000
Si      -2.71490769       0.00027693       2.71408977       0.00000000
Si       0.00144981       2.71471288       2.71457439       0.00000000
Si       0.00250866       2.71302198      -2.71640900       0.00000000
Si      -2.71448415      -2.71497285      -0.00024231       0.00000000
