10
Lattice="16.28999089631971 0.0 0.0 0.0 16.28999089631971 0.0 0.0 0.0 34.61538196595647" Properties=species:S:1:pos:R:3:initial_magmoms:R:1 pbc="T T T"
Si      -1.13766102      -0.30954258       2.00932020       0.00000000
Si       0.22227705       1.83119148      -1.46357378       0.00000000
Si      -0.72021348      -1.74073311      -1.43657377       0.00000000
Si       2.19890565      -0.40532778       0.91073121       0.00000000
Si       1.60850718      -2.06294931      -1.72322391       0.00000000
Si       3.10181148      -0.27681597      -1.24667368       0.00000000
Si      -0.36427698      -2.68051950       2.09893947       0.00000000
Si      -0.80501922       3.32933391      -0.00647308       0.00000000
Si      -3.32550087       0.26611344       1.45706609       0.00000000
Si       2.53531044       1.96099020      -1.73187776       0.00000000
