10
Lattice="16.28999089631971 0.0 0.0 0.0 16.28999089631971 0.0 0.0 0.0 34.61538196595647" Properties=species:S:1:pos:R:3:initial_magmoms:R:1 pbc="T T T"
Si      -0.38952648      -1.85715774       1.39330452       0.00000000
Si       2.32872066      -0.32221620      -0.28665014       0.00000000
Si       0.72021348       1.74073311       1.43657377       0.00000000
Si      -1.09105533       0.26707455      -2.14373180       0.00000000
Si      -1.08799281      -2.04646383      -2.55271277       0.00000000
Si       0.68038443      -3.60882144       0.06753465       0.00000000
Si       0.35593650      -0.93978639       3.53551324       0.00000000
Si       0.94249053       3.57192459      -0.02700001       0.00000000
Si      -0.41744754       1.43119053       3.44589397       0.00000000
Si      -3.34243826       0.31991931      -1.82229319       0.00000000
