10
Lattice="16.28999089631971 0.0 0.0 0.0 16.28999089631971 0.0 0.0 0.0 34.61538196595647" Properties=species:S:1:pos:R:3:initial_magmoms:R:1 pbc="T T T"
Si       1.37700999      -1.09907001       1.53879305       0.00000000
Si      -1.49730024       1.30209228       1.33847372       0.00000000
Si      -0.74891646      -1.90169460      -1.29482370       0.00000000
Si       0.80700660       1.88243982      -1.29970447       0.00000000
Si       0.38874456      -1.59215202      -3.30414390       0.00000000
Si      -2.93675631      -1.32603858      -1.84707781       0.00000000
Si       2.25215766       0.61537104       2.91267833       0.00000000
Si      -0.41627466       1.73718189      -3.31061698       0.00000000
Si       3.15265257       1.53420849      -1.52169304       0.00000000
Si      -0.49353813       3.42658521       1.74960084       0.00000000
