10
Lattice="16.28999089631971 0.0 0.0 0.0 16.28999089631971 0.0 0.0 0.0 34.61538196595647" Properties=species:S:1:pos:R:3:initial_magmoms:R:1 pbc="T T T"
Si       0.95293242       2.12198427       0.40053481       0.00000000
Si      -1.40256411       0.77889006      -1.74991238       0.00000000
Si      -1.38783632      -0.90793944       1.71052006       0.00000000
Si       1.81081269      -1.51358535      -0.37260018       0.00000000
Si       0.22333590      -0.96966225       3.46707860       0.00000000
Si      -0.89783475      -2.95687935      -2.02091636       0.00000000
Si      -2.98238039       0.81940329       2.02884329       0.00000000
Si       1.52295210      -3.20657247       1.18007365       0.00000000
Si      -2.38901714      -1.18403865      -2.63869743       0.00000000
Si       1.81957671       2.82230766      -1.69255466       0.00000000
