10
Lattice="16.28999089631971 0.0 0.0 0.0 16.28999089631971 0.0 0.0 0.0 34.61538196595647" Properties=species:S:1:pos:R:3:initial_magmoms:R:1 pbc="T T T"
Si      -1.59454406       1.72734273       0.31832323       0.00000000
Si       1.38783632       0.90793944      -1.71052006       0.00000000
Si       1.61117222      -0.06172281       1.75655854       0.00000000
Si      -1.23622922      -2.08469646      -0.29997707       0.00000000
Si       0.67444347      -2.88774459      -1.44398147       0.00000000
Si      -2.24707259      -1.93394880       1.90048938       0.00000000
Si      -3.16758791       0.41361939       1.58233922       0.00000000
Si       2.91078842      -2.29863303      -0.53044641       0.00000000
Si      -0.01472779       1.68682950      -3.46043244       0.00000000
Si       3.19864901      -0.60564591      -2.08312024       0.00000000
