10
Lattice="16.28999089631971 0.0 0.0 0.0 16.28999089631971 0.0 0.0 0.0 34.61538196595647" Properties=species:S:1:pos:R:3:initial_magmoms:R:1 pbc="T T T"
Si      -1.35629616      -1.35645201       1.35816989       0.00000000
Si       1.35710537      -1.35739683      -1.35706219       0.00000000
Si       1.35638698       1.35865116       1.35758142       0.00000000
Si      -1.35776226       1.35762489      -1.35737373       0.00000000
Si       2.71311592      -0.00167787      -2.71447054       0.00000000
Si      -0.00006996       2.71445157       2.71391669       0.00000000
Si      -0.00149643       2.71420722      -2.71457439       0.00000000
Si       2.71456573       2.71511946      -0.00027692       0.00000000
Si      -2.71481700       2.71497285       0.00010385       0.00000000
Si      -2.71486587      -2.71538010       0.00055385       0.00000000
