10
Lattice="16.28999089631971 0.0 0.0 0.0 16.28999089631971 0.0 0.0 0.0 34.61538196595647" Properties=species:S:1:pos:R:3:initial_magmoms:R:1 pbc="T T T"
Si       1.35496962       1.35754344       1.35782373       0.00000000
Si      -1.35688207       1.35702216      -1.35699296       0.00000000
Si       1.35754344      -1.35736425      -1.35647373       0.00000000
Si      -1.35817875      -1.35646830       1.35785835       0.00000000
Si      -2.71463569      -0.00066789       2.71419362       0.00000000
Si       2.71479366      -0.00079821      -2.71419362       0.00000000
Si      -2.71477294       2.71467963      -0.00003462       0.00000000
Si      -2.71456573      -2.71511946       0.00027692       0.00000000
Si       2.71511946       2.71477737       0.00090000       0.00000000
Si      -0.00109143       2.71538010      -2.71471285       0.00000000
