10
Lattice="16.28999089631971 0.0 0.0 0.0 16.28999089631971 0.0 0.0 0.0 34.61538196595647" Properties=species:S:1:pos:R:3:initial_magmoms:R:1 pbc="T T T"
Si      -1.35645694       1.35580041       1.35633527       0.00000000
Si       1.35817875       1.35646830      -1.35785835       0.00000000
Si      -1.35638698      -1.35865116      -1.35758142       0.00000000
Si       1.35643572      -1.35837423       1.36156220       0.00000000
Si      -0.00597517       2.70488934       2.71841670       0.00000000
Si      -2.71282976       2.71287144      -0.00045000       0.00000000
Si       2.71314837       2.71401174      -0.00003462       0.00000000
Si      -2.71268315      -2.71510317       0.00058846       0.00000000
Si       0.00129668       2.71349046      -2.71485131       0.00000000
Si      -2.71414925      -0.00102627      -2.71495516       0.00000000
