10
Lattice="16.28999089631971 0.0 0.0 0.0 16.28999089631971 0.0 0.0 0.0 34.61538196595647" Properties=species:S:1:pos:R:3:initial_magmoms:R:1 pbc="T T T"
Si      -1.10470865      -1.56124989      -1.38163913       0.00000000
Si       0.01223705      -0.11424177       2.36589345       0.00000000
Si       1.63411995       1.12387968      -1.36872758       0.00000000
Si       2.11827504      -1.46854350       2.06152023       0.00000000
Si       3.29297952       0.43481268       1.20361212       0.00000000
Si      -2.88645998      -2.32556040       0.15123469       0.00000000
Si       0.26169071       2.40396417      -2.82326675       0.00000000
Si      -2.44687433      -0.28536822      -2.81925136       0.00000000
Si       0.46682090       2.10870792       3.17783230       0.00000000
Si       2.25757083       3.13890381      -0.20063087       0.00000000
