10
Lattice="16.28999089631971 0.0 0.0 0.0 16.28999089631971 0.0 0.0 0.0 34.61538196595647" Properties=species:S:1:pos:R:3:initial_magmoms:R:1 pbc="T T T"
Si      -1.02729627       1.49814243       1.45710070       0.00000000
Si       2.31303339       0.12979872      -0.26830398       0.00000000
Si      -0.22227705      -1.83119148       1.46357378       0.00000000
Si      -0.52564572       0.03025053      -2.37738576       0.00000000
Si       2.87953443      -2.10800745       0.21690010       0.00000000
Si      -2.63168371       1.38455226      -2.07301254       0.00000000
Si      -3.20839043       0.49891383       1.68943928       0.00000000
Si      -0.94249053      -3.57192459       0.02700001       0.00000000
Si       1.97662860      -2.23651926       2.37430499       0.00000000
Si       0.64905876       1.93360671      -3.23529387       0.00000000
