10
Lattice="16.28999089631971 0.0 0.0 0.0 16.28999089631971 0.0 0.0 0.0 34.61538196595647" Properties=species:S:1:pos:R:3:initial_magmoms:R:1 pbc="T T T"
Si       0.79862377       0.86128488      -2.03424329       0.00000000
Si      -0.98645302      -1.96292871      -0.88878504       0.00000000
Si       1.40256411      -0.77889006       1.74991238       0.00000000
Si      -1.26281287       2.02101885       0.54619642       0.00000000
Si       2.35549653       1.34309421       2.15044719       0.00000000
Si      -1.30850632       1.14332994      -3.01963992       0.00000000
Si      -2.85589342       0.97184511       1.94247786       0.00000000
Si      -1.66103821      -1.24621758      -3.11417458       0.00000000
Si       0.50472936      -3.73576941      -0.27100398       0.00000000
Si       3.22214082       2.04341760       0.05735772       0.00000000
