10
Lattice="16.28999089631971 0.0 0.0 0.0 16.28999089631971 0.0 0.0 0.0 34.61538196595647" Properties=species:S:1:pos:R:3:initial_magmoms:R:1 pbc="T T T"
Si      -0.47789973       0.46822347      -2.24543185       0.00000000
Si      -2.00277309      -0.63193797       1.25661318       0.00000000
Si       0.82747336       1.95333390       1.22298432       0.00000000
Si       1.69926691      -1.81749159       0.03091155       0.00000000
Si      -1.70947164       2.37273624      -1.50213534       0.00000000
Si      -0.69855641      -1.98438264       2.75294006       0.00000000
Si       2.06251762       0.70620408       2.75412737       0.00000000
Si       3.36413749      -0.71219880       1.30993821       0.00000000
Si       0.60629425      -3.40438194       1.42565057       0.00000000
Si      -1.42170879      -1.58607585      -3.17703615       0.00000000
