10
Lattice="16.28999089631971 0.0 0.0 0.0 16.28999089631971 0.0 0.0 0.0 34.61538196595647" Properties=species:S:1:pos:R:3:initial_magmoms:R:1 pbc="T T T"
Si      -1.35623557      -1.35827649       1.35744296       0.00000000
Si       1.35789087      -1.35765747      -1.35695835       0.00000000
Si      -1.35797860       1.35804843      -1.35664681       0.00000000
Si       1.35813196       1.35752715       1.35709681       0.00000000
Si      -0.00141415       2.71305242      -2.71343208       0.00000000
Si       2.71368151       0.00070047      -2.71467823       0.00000000
Si      -2.71460980      -2.71482624       0.00041538       0.00000000
Si      -2.71548946       0.00125433      -2.71395131       0.00000000
Si       2.71477294      -2.71467963       0.00003462       0.00000000
Si       0.00013724      -2.71534752       2.71422823       0.00000000
