10
Lattice="16.28999089631971 0.0 0.0 0.0 16.28999089631971 0.0 0.0 0.0 34.61538196595647" Properties=species:S:1:pos:R:3:initial_magmoms:R:1 pbc="T T T"
Si       1.35706247      -1.35625653      -1.36201220       0.00000000
Si      -1.35759828       1.35897763      -1.36118143       0.00000000
Si      -1.34994198      -1.35402480       1.37713913       0.00000000
Si       1.35402113       1.35037488       1.38177759       0.00000000
Si       2.71534874      -2.71322982      -0.00152308       0.00000000
Si      -2.71678701      -2.71267596      -0.00093462       0.00000000
Si      -0.00106949      -2.71378368      -2.71910900       0.00000000
Si       2.71411070       0.00129493      -2.71893593       0.00000000
Si      -2.71620057       0.00148004      -2.71869362       0.00000000
Si      -0.00109669       2.71649501      -2.71886670       0.00000000
