10
Lattice="10.86 0.0 0.0 0.0 10.86 0.0 0.0 0.0 10.86" Properties=species:S:1:pos:R:3:initial_magmoms:R:1 pbc="T T T"
Si       1.35750000       1.35750000       1.35750000       0.00000000
Si      -1.35750000       1.35750000      -1.35750000       0.00000000
Si      -1.35750000      -1.35750000       1.35750000       0.00000000
Si       1.35750000      -1.35750000      -1.35750000       0.00000000
Si       2.58070524       2.66003754       0.11284626       0.00000000
Si      -2.48379060      -2.75851602       0.02520606       0.00000000
Si       0.09726216       2.59356348       2.70883152       0.00000000
Si      -0.04316850      -2.52504774      -2.79969714       0.00000000
Si       0.12066546      -2.66337156       2.73054066       0.00000000
Si      -2.71500000       0.00000000       2.71500000       0.00000000
