10
Lattice="10.86 0.0 0.0 0.0 10.86 0.0 0.0 0.0 10.86" Properties=species:S:1:pos:R:3:initial_magmoms:R:1 pbc="T T T"
Si       0.99367914      -1.61749926      -1.07287026       0.00000000
Si       0.99367914       1.09750074       1.64212974       0.00000000
Si      -1.72132086       1.09750074      -1.07287026       0.00000000
Si       2.35117914      -0.25999926      -2.43037026       0.00000000
Si       2.35117914       2.45500074       0.28462974       0.00000000
Si      -0.36382086       2.45500074      -2.43037026       0.00000000
Si      -0.07921284      -2.92840986      -2.34431562       0.00000000
Si       2.35117914      -2.97499926       0.28462974       0.00000000
Si       2.35117914      -0.25999926       2.99962974       0.00000000
Si      -0.36382086       2.45500074       2.99962974       0.00000000
