10
Lattice="16.28999089631971 0.0 0.0 0.0 16.28999089631971 0.0 0.0 0.0 34.185847837958455" Properties=species:S:1:pos:R:3:initial_magmoms:R:1 pbc="T T T"
Si      -0.20460240      -0.18647163      -2.35089370       0.00000000
Si       0.05618421      -2.36310885       0.45696248       0.00000000
Si       2.40973083       0.37551708       0.30363887       0.00000000
Si      -1.28107981       2.05874553       0.49620786       0.00000000
Si      -2.17262011      -1.51545870      -0.03175867       0.00000000
Si      -0.21766698      -1.77893316       2.71736042       0.00000000
Si      -2.11541777       0.00153126       2.74050323       0.00000000
Si       2.33870643       2.34746135      -1.02868692       0.00000000
Si       0.63506565       3.60182393       0.08190934       0.00000000
Si       1.64577870       1.25704458      -3.03690149       0.00000000
