10
Lattice="16.28999089631971 0.0 0.0 0.0 16.28999089631971 0.0 0.0 0.0 34.185847837958455" Properties=species:S:1:pos:R:3:initial_magmoms:R:1 pbc="T T T"
Si       1.38233682      -1.24185905       1.48281540       0.00000000
Si      -0.96629022      -1.73640716      -1.32509347       0.00000000
Si       1.80353106       0.86874570      -1.31818792       0.00000000
Si      -1.32436071       1.46318409       1.44113257       0.00000000
Si       2.53882908      -2.67860447       0.07534565       0.00000000
Si       0.63689013      -3.53441591      -1.18046739       0.00000000
Si       3.38111982      -0.95650645      -1.40098609       0.00000000
Si      -2.71987614      -2.65879583       0.08591250       0.00000000
Si       2.68192044       2.73035061       0.11036223       0.00000000
Si       0.04287528      -2.60249759       2.83506813       0.00000000
