10
Lattice="16.28999089631971 0.0 0.0 0.0 16.28999089631971 0.0 0.0 0.0 34.185847837958455" Properties=species:S:1:pos:R:3:initial_magmoms:R:1 pbc="T T T"
Si       1.41788160      -1.31112509      -1.38398064       0.00000000
Si      -1.31929452       1.38044718      -1.41700418       0.00000000
Si       0.86354919       1.92573864       1.21968336       0.00000000
Si      -0.52484751      -1.87723516       1.48787149       0.00000000
Si       0.17151741      -0.58345893       3.47875382       0.00000000
Si      -2.54062098      -2.68319825       0.22354138       0.00000000
Si       0.04372236      -2.66039225      -2.76235479       0.00000000
Si      -0.97676469       3.58093296       1.00007335       0.00000000
Si      -2.66962149       0.05426199      -2.76662803       0.00000000
Si      -2.78067042       2.65675239      -0.15318687       0.00000000
