10
Lattice="16.28999089631971 0.0 0.0 0.0 16.28999089631971 0.0 0.0 0.0 34.185847837958455" Properties=species:S:1:pos:R:3:initial_magmoms:R:1 pbc="T T T"
Si       1.21399596      -1.47739549      -1.40035567       0.00000000
Si       0.95262291      -0.33397758       2.16386282       0.00000000
Si      -2.34650934      -0.42166665      -0.17547606       0.00000000
Si       1.00172097       2.12594274      -0.60132940       0.00000000
Si       3.16983852       1.23986448      -0.08710559       0.00000000
Si      -0.50384970       1.28736612       3.20444642       0.00000000
Si       3.41179389      -1.07595450      -0.64330964       0.00000000
Si      -2.39609610      -2.00784350      -1.88292337       0.00000000
Si       0.61460541      -0.95535963      -3.67720278       0.00000000
Si       3.08765547       0.71770482       2.18731432       0.00000000
