10
Lattice="16.28999089631971 0.0 0.0 0.0 16.28999089631971 0.0 0.0 0.0 34.185847837958455" Properties=species:S:1:pos:R:3:initial_magmoms:R:1 pbc="T T T"
Si       1.35361755      -1.35132066       1.35765752       0.00000000
Si       1.36492281       1.36933740      -1.34175767       0.00000000
Si      -1.36019871       1.36324494       1.35615334       0.00000000
Si      -1.35979146      -1.35689184      -1.37042252       0.00000000
Si       0.02177973       2.67423156      -2.68690658       0.00000000
Si       2.71280628      -2.70720252      -0.00126488       0.00000000
Si      -2.71764115      -2.70508482       0.00006837       0.00000000
Si      -0.00324171      -2.70811476       2.71476807       0.00000000
Si       2.71202436       0.00632052       2.71446039       0.00000000
Si       2.71019988       2.72054403      -0.00075209       0.00000000
