10
Lattice="16.28999089631971 0.0 0.0 0.0 16.28999089631971 0.0 0.0 0.0 34.185847837958455" Properties=species:S:1:pos:R:3:initial_magmoms:R:1 pbc="T T T"
Si      -0.07478739       0.74139048      -2.17767391       0.00000000
Si       2.20402071      -0.59137587       0.34045705       0.00000000
Si       0.18510327       1.86753447       1.40838935       0.00000000
Si      -1.07087202      -2.08044477       0.35368698       0.00000000
Si       0.11272680       0.58378473       3.41574927       0.00000000
Si       2.26955538      -0.40532778       2.72591266       0.00000000
Si       0.43469865      -1.24186815      -3.45208884       0.00000000
Si       2.52063315      -2.65010607      -0.66344512       0.00000000
Si      -2.30319423       1.33503066      -2.59539102       0.00000000
Si       0.99626382       2.91468825      -2.10728521       0.00000000
