10
Lattice="16.28999089631971 0.0 0.0 0.0 16.28999089631971 0.0 0.0 0.0 34.185847837958455" Properties=species:S:1:pos:R:3:initial_magmoms:R:1 pbc="T T T"
Si       1.07087202       2.08044477      -0.35368698       0.00000000
Si       0.13955643      -0.71776998       2.26867669       0.00000000
Si       1.45647261      -1.62134370      -1.04058360       0.00000000
Si      -2.30286843       0.23322393      -0.74480748       0.00000000
Si       0.50384970      -1.28736612      -3.20444642       0.00000000
Si       3.27489273       1.48906890      -0.01322993       0.00000000
Si      -1.51057170      -2.40888375       2.45037457       0.00000000
Si      -2.92060152      -2.01885228      -1.27861980       0.00000000
Si       3.59150517      -0.56966130      -1.01713210       0.00000000
Si      -3.39723063       1.44544428       0.94636735       0.00000000
