10
Lattice="16.28999089631971 0.0 0.0 0.0 16.28999089631971 0.0 0.0 0.0 34.185847837958455" Properties=species:S:1:pos:R:3:initial_magmoms:R:1 pbc="T T T"
Si      -1.24749539       1.74387545      -0.85074948       0.00000000
Si      -0.81130227      -0.83849028       2.05190411       0.00000000
Si      -0.01295218      -1.54177587      -1.79793730       0.00000000
Si       2.24516925       0.73871729       0.29598124       0.00000000
Si       1.11189024      -2.18524716       2.70276883       0.00000000
Si       2.96227134      -0.74173094       2.01676103       0.00000000
Si      -0.18520915       2.36177144      -2.92333604       0.00000000
Si      -0.72271237       1.06204121       3.57119240       0.00000000
Si      -3.04690508      -1.72837782       1.65015180       0.00000000
Si      -3.44825810       1.14556004      -1.38192949       0.00000000
