10
Lattice="16.28999089631971 0.0 0.0 0.0 16.28999089631971 0.0 0.0 0.0 34.185847837958455" Properties=species:S:1:pos:R:3:initial_magmoms:R:1 pbc="T T T"
Si       1.35563751      -1.35567009       1.35406800       0.00000000
Si       1.35589815       1.35749457      -1.35734985       0.00000000
Si      -1.35879777      -1.35694071      -1.35690543       0.00000000
Si      -1.35767376       1.35526284       1.35994797       0.00000000
Si       0.01464471      -2.70967860       2.71015297       0.00000000
Si       2.71169856      -2.71350675       0.00010256       0.00000000
Si       2.71217097       2.71450044       0.00116232       0.00000000
Si       2.71381626      -0.00032580      -2.71415272       0.00000000
Si      -0.00159642      -2.71464705      -2.71422109       0.00000000
Si      -0.00203625       2.71573848      -2.71425528       0.00000000
