10
Lattice="16.28999089631971 0.0 0.0 0.0 16.28999089631971 0.0 0.0 0.0 34.185847837958455" Properties=species:S:1:pos:R:3:initial_magmoms:R:1 pbc="T T T"
Si       1.65363048       0.90056007       1.44397683       0.00000000
Si       1.38052863      -1.32056514      -1.41662814       0.00000000
Si      -1.32699969       1.40595732      -1.41150026       0.00000000
Si      -1.40120064      -1.48094019       1.38100647       0.00000000
Si       0.33718671      -2.59623504       2.49703828       0.00000000
Si       2.67180435       2.57439015      -0.00369207       0.00000000
Si       3.46248837      -0.83738745       1.14772211       0.00000000
Si      -2.73082302       2.71516833       0.00126488       0.00000000
Si       0.02241504      -2.65999410      -2.79332719       0.00000000
Si       2.73199590      -2.73284298       0.01904153       0.00000000
