10
Lattice="16.28999089631971 0.0 0.0 0.0 16.28999089631971 0.0 0.0 0.0 34.185847837958455" Properties=species:S:1:pos:R:3:initial_magmoms:R:1 pbc="T T T"
Si      -0.97937109      -1.55525517      -1.45795885       0.00000000
Si       1.72296072       1.00504413      -1.37574184       0.00000000
Si      -1.50954543       1.99669692       0.00345277       0.00000000
Si       0.21971952      -1.69034814       2.04434903       0.00000000
Si      -2.30374809      -0.14996574      -2.86877540       0.00000000
Si      -2.36778408      -2.89123065       0.02187895       0.00000000
Si       0.43318368       2.56280700      -2.86839935       0.00000000
Si       3.15633411       2.27019625      -0.02283616       0.00000000
Si      -3.52531890       1.19073384      -1.26087733       0.00000000
Si      -0.81318051       3.29047316       1.99433511       0.00000000
