10
Lattice="16.28999089631971 0.0 0.0 0.0 16.28999089631971 0.0 0.0 0.0 34.185847837958455" Properties=species:S:1:pos:R:3:initial_magmoms:R:1 pbc="T T T"
Si       1.43337339       1.26515212       1.35290568       0.00000000
Si       1.40659263      -1.17147906      -1.49293100       0.00000000
Si      -1.72296072      -1.00504413       1.37574184       0.00000000
Si      -1.28977704       1.55776287      -1.49265751       0.00000000
Si      -3.23250615       0.99165279       1.37919462       0.00000000
Si      -2.70233181      -2.56029930      -0.08221701       0.00000000
Si       0.20686671       1.84020704       3.29538083       0.00000000
Si       0.05137866      -2.50497846      -2.87103166       0.00000000
Si       2.70029556      -2.70107748      -0.08717396       0.00000000
Si      -2.66393628       0.20849571      -2.87103166       0.00000000
