10
Lattice="16.28999089631971 0.0 0.0 0.0 16.28999089631971 0.0 0.0 0.0 34.185847837958455" Properties=species:S:1:pos:R:3:initial_magmoms:R:1 pbc="T T T"
Si      -0.04636134      -2.16733563      -0.92342864       0.00000000
Si       1.97576523       1.30324887      -0.11571916       0.00000000
Si      -0.35354187      -0.04487895       2.37559576       0.00000000
Si      -1.78926102       0.56299869      -1.54157748       0.00000000
Si      -1.95672222       1.75312980       2.23096968       0.00000000
Si      -2.93034294       2.10038373       0.04191187       0.00000000
Si       0.88972722      -3.45031974       0.77513035       0.00000000
Si       1.42429986       3.00827823      -1.68508975       0.00000000
Si      -3.39796368      -1.16589159      -1.48014548       0.00000000
Si       3.67934085       0.11425806      -1.30316525       0.00000000
