10
Lattice="16.28999089631971 0.0 0.0 0.0 16.28999089631971 0.0 0.0 0.0 34.185847837958455" Properties=species:S:1:pos:R:3:initial_magmoms:R:1 pbc="T T T"
Si       0.96629022       1.73640716       1.32509347       0.00000000
Si       1.60318035      -1.79800875       0.14462608       0.00000000
Si      -0.97362072       0.34725393      -2.18905780       0.00000000
Si      -1.75358592      -0.92238867       1.41100597       0.00000000
Si       1.95672222      -1.75312980      -2.23096968       0.00000000
Si      -0.36347877      -2.24717292       2.79442938       0.00000000
Si       2.34862704       0.49454811       2.80790887       0.00000000
Si       2.76982128       2.60515286       0.00690555       0.00000000
Si       3.50511930      -0.94219731       1.40043912       0.00000000
Si       0.16746120      -1.19013111      -3.77254716       0.00000000
