10
Lattice="16.28999089631971 0.0 0.0 0.0 16.28999089631971 0.0 0.0 0.0 34.185847837958455" Properties=species:S:1:pos:R:3:initial_magmoms:R:1 pbc="T T T"
Si      -1.10928384       1.46901265       1.47581755       0.00000000
Si       1.39880601       1.23386650      -1.50400179       0.00000000
Si       1.58110740      -1.24339356       1.45773323       0.00000000
Si      -1.84003695      -0.96097316      -1.40151256       0.00000000
Si      -2.53923633       2.72588389       0.10983577       0.00000000
Si      -2.46741372       0.10730060       2.83611422       0.00000000
Si      -3.41762571       0.86427898      -1.31871439       0.00000000
Si      -2.68232769      -2.68307118       0.07481919       0.00000000
Si       0.24970941      -2.60584029       2.83074704       0.00000000
Si       2.88562689       2.64744754       0.08044960       0.00000000
