10
Lattice="16.28999089631971 0.0 0.0 0.0 16.28999089631971 0.0 0.0 0.0 34.185847837958455" Properties=species:S:1:pos:R:3:initial_magmoms:R:1 pbc="T T T"
Si      -1.35741312       1.35491912       1.35666613       0.00000000
Si       1.35749457      -1.36024363       1.35581148       0.00000000
Si      -1.37140623      -1.35362637      -1.35382528       0.00000000
Si       1.35812988       1.36171205      -1.36029667       0.00000000
Si       2.46741372      -0.10730060      -2.83611422       0.00000000
Si      -0.07182261       2.61858329      -2.72627845       0.00000000
Si      -2.71086777      -2.71426491      -0.00157255       0.00000000
Si       0.00146610       2.71374947       2.71363993       0.00000000
Si      -2.71350675      -0.00179190       2.71398179       0.00000000
Si      -2.71293660       2.71534589      -0.00222208       0.00000000
