10
Lattice="16.28999089631971 0.0 0.0 0.0 16.28999089631971 0.0 0.0 0.0 34.185847837958455" Properties=species:S:1:pos:R:3:initial_magmoms:R:1 pbc="T T T"
Si       1.35669636       1.35526284       1.35700799       0.00000000
Si       1.35692442      -1.35753692      -1.35728148       0.00000000
Si      -1.35752715       1.35731538      -1.35728148       0.00000000
Si      -1.35905841      -1.35784643       1.35625590       0.00000000
Si       2.71427238      -0.00099369      -2.71367412       0.00000000
Si       2.71656927       0.00197109       2.71240924       0.00000000
Si       2.71459818       2.71463076      -0.00017093       0.00000000
Si      -0.00014661      -2.71120076       2.71822084       0.00000000
Si      -0.00187335       2.71461447      -2.71493899       0.00000000
Si       2.71463076      -2.71500769       0.00000000       0.00000000
