10
Lattice="16.28999089631971 0.0 0.0 0.0 16.28999089631971 0.0 0.0 0.0 34.185847837958455" Properties=species:S:1:pos:R:3:initial_magmoms:R:1 pbc="T T T"
Si       1.35586557      -1.35559841      -1.36025565       0.00000000
Si      -1.35853713       1.35843939      -1.35923007       0.00000000
Si      -1.34123715      -1.36310647       1.37851090       0.00000000
Si       1.34988714       1.35492075       1.38203204       0.00000000
Si       2.71477737      -2.70895274       0.00170929       0.00000000
Si      -2.71539639      -2.71237364       0.00013674       0.00000000
Si      -2.71293660       2.71515204       0.00273487       0.00000000
Si      -0.00065160      -2.71254684      -2.71681922       0.00000000
Si       2.71492398       0.00224802      -2.71651154       0.00000000
Si      -2.71538010       0.00179190      -2.71651154       0.00000000
