10
Lattice="16.28999089631971 0.0 0.0 0.0 16.28999089631971 0.0 0.0 0.0 34.185847837958455" Properties=species:S:1:pos:R:3:initial_magmoms:R:1 pbc="T T T"
Si       1.04304870      -1.26366417       1.71195984       0.00000000
Si      -1.52016651       1.29924153       1.27892747       0.00000000
Si       1.62634473       1.64287908      -0.58772342       0.00000000
Si      -1.21632543      -2.07619308      -0.16173334       0.00000000
Si       0.01018125      -2.65124800      -2.10420848       0.00000000
Si       2.71393029       0.22600746      -2.09091018       0.00000000
Si       0.18878481       2.88515448      -2.09890967       0.00000000
Si      -3.56086368       0.76286070       0.03651051       0.00000000
Si      -1.24064640       0.43585524       3.49656466       0.00000000
Si       0.02259423      -3.44863372       1.44548101       0.00000000
