10
Lattice="16.28999089631971 0.0 0.0 0.0 16.28999089631971 0.0 0.0 0.0 34.185847837958455" Properties=species:S:1:pos:R:3:initial_magmoms:R:1 pbc="T T T"
Si      -0.03003876       1.09289610       2.09603806       0.00000000
Si      -1.04304870       1.26366417      -1.71195984       0.00000000
Si       2.29610808      -0.46825605      -0.51753984       0.00000000
Si      -1.02045447      -2.18496955      -0.26647883       0.00000000
Si      -2.25937413      -0.81252891      -1.87369318       0.00000000
Si      -2.28369510       1.69951941       1.78460481       0.00000000
Si       0.79374654      -0.70786566       3.40870698       0.00000000
Si       0.70858242      -2.47820489      -2.58260550       0.00000000
Si      -2.56321521       2.56290570      -0.43303238       0.00000000
Si       0.58329603       2.90654325      -2.29968327       0.00000000
