10
Lattice="16.28999089631971 0.0 0.0 0.0 16.28999089631971 0.0 0.0 0.0 34.185847837958455" Properties=species:S:1:pos:R:3:initial_magmoms:R:1 pbc="T T T"
Si      -1.32962238       1.26918648      -1.38625400       0.00000000
Si      -1.38805461      -1.31887098       1.34386010       0.00000000
Si       1.32524037       1.39243662       1.34085175       0.00000000
Si       1.29200877      -1.49185449      -1.49994594       0.00000000
Si      -2.15896257      -0.62851707      -2.49728920       0.00000000
Si       0.52717698       2.11590810      -2.62944185       0.00000000
Si       2.22065280       0.36253395      -2.67107682       0.00000000
Si      -0.52087275      -2.50106886      -2.77134708       0.00000000
Si      -0.03429045      -2.67802713       2.70076553       0.00000000
Si       2.68100820       0.03847698       2.69980833       0.00000000
