10
Lattice="16.28999089631971 0.0 0.0 0.0 16.28999089631971 0.0 0.0 0.0 34.185847837958455" Properties=species:S:1:pos:R:3:initial_magmoms:R:1 pbc="T T T"
Si      -1.35783666      -1.35231435      -1.35694645       0.00000000
Si      -1.35884664       1.35702216       1.35933263       0.00000000
Si       1.35729909      -1.35858600       1.36059750       0.00000000
Si       1.37083608       1.33820721      -1.36988922       0.00000000
Si      -0.03254742       2.54319480      -2.84137884       0.00000000
Si       2.63707407      -0.17387946      -2.75231440       0.00000000
Si      -2.71261080       2.71617831       0.00242720       0.00000000
Si      -2.71596654      -2.71402640       0.00335021       0.00000000
Si       2.71591767       2.71529865      -0.00352114       0.00000000
Si       0.00065160       2.71423980       2.71709270       0.00000000
