10
Lattice="16.28999089631971 0.0 0.0 0.0 16.28999089631971 0.0 0.0 0.0 34.185847837958455" Properties=species:S:1:pos:R:3:initial_magmoms:R:1 pbc="T T T"
Si       1.35558864       1.35845568       1.35693962       0.00000000
Si      -1.35770634       1.35731538      -1.35738403       0.00000000
Si       1.35747828      -1.35780408      -1.35724729       0.00000000
Si      -1.35845568      -1.35892809       1.35731566       0.00000000
Si      -0.00047241       2.71629234       2.71090506       0.00000000
Si       2.71313208      -0.00050499      -2.71490481       0.00000000
Si      -0.00042354       2.71419093      -2.71432365       0.00000000
Si       2.71448415       2.71500543      -0.00013674       0.00000000
Si      -2.71490769       2.71502172      -0.00006837       0.00000000
Si       2.71500543      -2.71511946       0.00003419       0.00000000
