10
Lattice="16.28999089631971 0.0 0.0 0.0 16.28999089631971 0.0 0.0 0.0 34.185847837958455" Properties=species:S:1:pos:R:3:initial_magmoms:R:1 pbc="T T T"
Si       1.35645201      -1.35985662      -1.36299052       0.00000000
Si      -1.35966114       1.35845568      -1.36309307       0.00000000
Si       1.37305152       1.35452979       1.37645975       0.00000000
Si      -1.36528119      -1.36244673       1.37854508       0.00000000
Si       2.71632492      -2.71314837      -0.00758926       0.00000000
Si       2.71604799       2.71371852      -0.00444416       0.00000000
Si      -2.71572219       2.71629234      -0.00912763       0.00000000
Si      -2.71516833      -2.71736748      -0.00348696       0.00000000
Si       2.71435383      -0.00048870      -2.72016943       0.00000000
Si      -0.00024435      -2.71511946      -2.71999850       0.00000000
