10
Lattice="16.28999089631971 0.0 0.0 0.0 16.28999089631971 0.0 0.0 0.0 34.185847837958455" Properties=species:S:1:pos:R:3:initial_magmoms:R:1 pbc="T T T"
Si       1.34299647       1.35918873      -1.38090391       0.00000000
Si      -1.37919285       1.28891367       1.42678134       0.00000000
Si      -1.37305152      -1.35452979      -1.37645975       0.00000000
Si       1.37849238      -1.45357299       1.42886668       0.00000000
Si      -2.52770301      -0.19121202       2.84942620       0.00000000
Si       2.68815951       2.70809847      -0.00222208       0.00000000
Si       2.69687466      -2.73349458      -0.02122942       0.00000000
Si      -2.73066012       2.70119151      -0.00888833       0.00000000
Si       2.69777061       0.00162900      -2.73914259       0.00000000
Si      -0.01659951      -2.71438641      -2.73945026       0.00000000
