10
Lattice="16.28999089631971 0.0 0.0 0.0 16.28999089631971 0.0 0.0 0.0 34.185847837958455" Properties=species:S:1:pos:R:3:initial_magmoms:R:1 pbc="T T T"
Si      -0.65842551       1.76533101       1.40650912       0.00000000
Si       2.25365634      -0.60662331       0.31143325       0.00000000
Si      -0.27952011       0.86338629      -2.21763719       0.00000000
Si      -0.91080648      -2.14839036       0.55842614       0.00000000
Si       2.28369510      -1.69951941      -1.78460481       0.00000000
Si      -3.21745419      -1.79338239       0.55172571       0.00000000
Si       1.24064640      -0.43585524      -3.49656466       0.00000000
Si      -0.52369092       0.93291201       3.63429951       0.00000000
Si      -2.83053411       2.46006693       0.69872493       0.00000000
Si      -0.31141593      -2.67042622       2.83527325       0.00000000
