10
Lattice="16.28999089631971 0.0 0.0 0.0 16.28999089631971 0.0 0.0 0.0 34.185847837958455" Properties=species:S:1:pos:R:3:initial_magmoms:R:1 pbc="T T T"
Si       1.25029008      -1.36697535       1.47645341       0.00000000
Si       1.73838735       1.02871350      -1.32265260       0.00000000
Si      -1.44537928       1.33229394       1.47329805       0.00000000
Si      -1.19712929      -1.90249281      -1.23428213       0.00000000
Si      -2.68404533       2.54914065      -0.07551658       0.00000000
Si       2.45451204      -2.77602777      -0.00256736       0.00000000
Si       2.63186127       2.66414805       0.15996935       0.00000000
Si       3.51238464      -0.82699443      -1.34265133       0.00000000
Si       2.61008154      -0.01008351       2.84687593       0.00000000
Si      -0.10730712       2.71059084       2.84243177       0.00000000
