10
Lattice="16.28999089631971 0.0 0.0 0.0 16.28999089631971 0.0 0.0 0.0 34.185847837958455" Properties=species:S:1:pos:R:3:initial_magmoms:R:1 pbc="T T T"
Si       1.53363834       1.75431897      -0.07110660       0.00000000
Si      -0.08218305      -0.52215966       2.27441991       0.00000000
Si       0.24195537      -2.31581898      -0.55620406       0.00000000
Si      -2.16811755       0.88607826      -0.51422381       0.00000000
Si      -3.16983852      -1.23986448       0.08710559       0.00000000
Si      -2.21721561      -1.57384206       2.25096841       0.00000000
Si      -1.95584256      -2.71725997      -1.31325008       0.00000000
Si      -0.39879549       1.53657054       3.27832208       0.00000000
Si       1.13049342       2.84807844       1.98315633       0.00000000
Si       3.68000874       0.82833021       0.15243478       0.00000000
