10
Lattice="16.28999089631971 0.0 0.0 0.0 16.28999089631971 0.0 0.0 0.0 34.185847837958455" Properties=species:S:1:pos:R:3:initial_magmoms:R:1 pbc="T T T"
Si      -0.63019494       1.70540010      -1.52964662       0.00000000
Si       2.05415271      -1.16843283      -0.40838437       0.00000000
Si      -1.89205092      -1.62792486      -0.38486449       0.00000000
Si       0.15402195       1.39838247       2.11548982       0.00000000
Si      -1.66672764      -2.09264598       2.07679142       0.00000000
Si      -0.78833826      -0.23104107       3.50534158       0.00000000
Si       1.36881612       2.97887085      -1.52239921       0.00000000
Si       1.18926774      -2.66201406      -2.15750425       0.00000000
Si      -2.78702352       2.69451261      -0.83981001       0.00000000
Si      -1.05552684      -3.44265041      -1.84617356       0.00000000
