10
Lattice="16.28999089631971 0.0 0.0 0.0 16.28999089631971 0.0 0.0 0.0 34.185847837958455" Properties=species:S:1:pos:R:3:initial_magmoms:R:1 pbc="T T T"
Si       1.35404109       1.36269108       1.38375501       0.00000000
Si      -1.36425492      -1.35514881       1.38447291       0.00000000
Si      -1.49639940       1.23976674      -1.44230514       0.00000000
Si       1.41307605      -1.47997908      -1.34485491       0.00000000
Si      -2.46829338      -0.53950851      -2.76156992       0.00000000
Si       2.69773803       2.70827766       0.00304596       0.00000000
Si      -2.70953199      -2.70635544       0.04346733       0.00000000
Si      -2.73222396       2.69640225       0.01887744       0.00000000
Si       2.70918990       0.00232947       2.74185695       0.00000000
Si      -0.00514764      -2.71249677       2.74274578       0.00000000
