10
Lattice="16.28999089631971 0.0 0.0 0.0 16.28999089631971 0.0 0.0 0.0 34.185847837958455" Properties=species:S:1:pos:R:3:initial_magmoms:R:1 pbc="T T T"
Si       1.35304740      -1.35462753      -1.35946937       0.00000000
Si       1.36814823       1.34987085       1.36240936       0.00000000
Si      -1.36207206       1.36021500      -1.35827287       0.00000000
Si      -1.36049193      -1.37052657       1.37133187       0.00000000
Si      -0.06921621       2.52442872       2.78426793       0.00000000
Si       2.71316466      -2.71252935      -0.00068372       0.00000000
Si      -0.00364896      -2.71124244      -2.71640899       0.00000000
Si       2.71145421       0.00345348      -2.71644317       0.00000000
Si      -2.71860552      -2.70995553      -0.00536718       0.00000000
Si       2.71189404       2.71904535      -0.00222208       0.00000000
