10
Lattice="16.28999089631971 0.0 0.0 0.0 16.28999089631971 0.0 0.0 0.0 34.185847837958455" Properties=species:S:1:pos:R:3:initial_magmoms:R:1 pbc="T T T"
Si       1.56980214       0.42500610       1.66420219       0.00000000
Si      -1.99081719       1.42780221      -0.21390097       0.00000000
Si       1.19454570      -0.25171308      -2.27349690       0.00000000
Si      -1.22215725      -1.79035245       1.64536578       0.00000000
Si       1.58436540      -2.20688775      -0.57835650       0.00000000
Si       2.36535687      -1.83702330       2.01118874       0.00000000
Si      -3.63021021      -0.37157490      -0.14453785       0.00000000
Si       0.28654110       0.68476644       3.65983636       0.00000000
Si      -2.68871337      -2.64432312       0.03904026       0.00000000
Si       2.50331688       2.70471015       1.08417058       0.00000000
