10
Lattice="16.28999089631971 0.0 0.0 0.0 16.28999089631971 0.0 0.0 0.0 34.185847837958455" Properties=species:S:1:pos:R:3:initial_magmoms:R:1 pbc="T T T"
Si       1.76896368      -0.06410115       1.43628501       0.00000000
Si      -0.66160206       2.24526699      -0.01466574       0.00000000
Si       0.91966824      -0.23604210      -2.14328293       0.00000000
Si      -2.00178036      -1.32892191       0.38462519       0.00000000
Si      -2.16927414       1.48063068      -1.68262837       0.00000000
Si      -1.19061981      -0.28176813      -3.13104937       0.00000000
Si       1.54642599      -2.47632435      -1.97847286       0.00000000
Si       2.08168281      -2.32831341       1.70939590       0.00000000
Si      -3.58052571       0.26614602      -0.23502784       0.00000000
Si      -1.81332135       2.36454237       2.14728267       0.00000000
