10
Lattice="16.28999089631971 0.0 0.0 0.0 16.28999089631971 0.0 0.0 0.0 34.185847837958455" Properties=species:S:1:pos:R:3:initial_magmoms:R:1 pbc="T T T"
Si       0.84388716       1.17263565       1.86555694       0.00000000
Si       1.71212787      -0.95930181      -1.32032655       0.00000000
Si      -1.15782804       1.59213573      -1.32846279       0.00000000
Si      -1.29091734      -1.88406882       0.81926430       0.00000000
Si       1.32774903      -0.66551166       3.27808278       0.00000000
Si      -1.80856467       0.24400791      -3.11368295       0.00000000
Si      -1.14357429       2.26033524       2.63702940       0.00000000
Si       3.15035568      -2.12577984       0.29249428       0.00000000
Si      -3.40120539      -1.92979485      -0.16850214       0.00000000
Si       0.21668958       3.51241722      -1.71623308       0.00000000
