10
Lattice="16.28999089631971 0.0 0.0 0.0 16.28999089631971 0.0 0.0 0.0 34.185847837958455" Properties=species:S:1:pos:R:3:initial_magmoms:R:1 pbc="T T T"
Si       2.25430794       0.14271669      -0.54058111       0.00000000
Si      -0.93608856       1.28298411      -1.69855898       0.00000000
Si      -1.21137327      -1.99412406       0.20832867       0.00000000
Si       2.79217116      -0.37338309       1.64334851       0.00000000
Si       0.93537180      -1.22010471       2.88653636       0.00000000
Si      -2.94599763      -0.27963414       1.46982135       0.00000000
Si       0.10603161      -3.11780826       1.77550115       0.00000000
Si      -0.88972722       3.45031974      -0.77513035       0.00000000
Si      -3.02106195       0.29009232      -2.04961365       0.00000000
Si      -1.97410365       1.49964111       2.78908613       0.00000000
