10
Lattice="16.28999089631971 0.0 0.0 0.0 16.28999089631971 0.0 0.0 0.0 34.185847837958455" Properties=species:S:1:pos:R:3:initial_magmoms:R:1 pbc="T T T"
Si      -1.15649226       1.43674542       1.40746975       0.00000000
Si       0.84229074       1.72209802      -1.47633174       0.00000000
Si      -1.90193895      -0.85581144      -1.25581304       0.00000000
Si       1.56136392      -1.29310020       1.37815878       0.00000000
Si      -2.53882908       2.67860447      -0.07534565       0.00000000
Si      -2.49595380       0.07610688       2.75972248       0.00000000
Si       2.68232769       2.68307118      -0.07481919       0.00000000
Si       0.42736815       0.49231638      -3.74712796       0.00000000
Si      -2.63277351      -2.76161112      -0.06719232       0.00000000
Si       0.21766698      -2.63868678       2.75886783       0.00000000
