10
Lattice="16.28999089631971 0.0 0.0 0.0 16.28999089631971 0.0 0.0 0.0 34.185847837958455" Properties=species:S:1:pos:R:3:initial_magmoms:R:1 pbc="T T T"
Si      -1.56980214      -0.42500610      -1.66420219       0.00000000
Si      -1.28326104       0.25976034       1.99563417       0.00000000
Si       0.79555473      -2.26202940       0.34698655       0.00000000
Si       0.93351474       2.27970405      -0.58003160       0.00000000
Si       1.59845625      -1.75910823       2.49519224       0.00000000
Si       0.01456326      -2.63189385      -2.24255869       0.00000000
Si       2.95713999       0.09747936       1.88135082       0.00000000
Si      -2.79195939      -2.21535855      -0.01883641       0.00000000
Si       2.36700216       2.37089547       1.30890847       0.00000000
Si      -0.24431742      -0.97627599       3.68940713       0.00000000
