10
Lattice="16.28999089631971 0.0 0.0 0.0 16.28999089631971 0.0 0.0 0.0 34.185847837958455" Properties=species:S:1:pos:R:3:initial_magmoms:R:1 pbc="T T T"
Si      -1.97576523      -1.30324887       0.11571916       0.00000000
Si      -0.55146537       1.70502936      -1.56937059       0.00000000
Si       1.70357562      -1.18899081      -1.18744609       0.00000000
Si       0.41492259       1.22978164       2.27079621       0.00000000
Si       1.69332921       2.48566571      -1.88070128       0.00000000
Si       3.18594933       0.64578447      -1.64844250       0.00000000
Si      -2.32930710      -1.34812782       2.49131492       0.00000000
Si      -1.38798945       3.51975491      -0.10806153       0.00000000
Si      -0.42736815      -0.49231638       3.74712796       0.00000000
Si       2.72344365      -2.77415442       0.24856544       0.00000000
