10
Lattice="16.28999089631971 0.0 0.0 0.0 16.28999089631971 0.0 0.0 0.0 34.185847837958455" Properties=species:S:1:pos:R:3:initial_magmoms:R:1 pbc="T T T"
Si       1.01986803      -1.58516361       1.43601153       0.00000000
Si      -0.84536955      -0.73777410      -2.09306389       0.00000000
Si      -1.70357562       1.18899081       1.18744609       0.00000000
Si       1.48237371       1.83477528      -0.46099642       0.00000000
Si       2.89053018       1.28156688       1.49713586       0.00000000
Si       1.14209190      -1.82547369      -2.86453635       0.00000000
Si      -2.25504099       2.89402017      -0.38192451       0.00000000
Si      -0.01024641       3.67465652      -0.69325520       0.00000000
Si       1.70152308      -0.25115922       3.32389184       0.00000000
Si      -0.53530569      -3.42186111       1.53771448       0.00000000
