10
Lattice="16.28999089631971 0.0 0.0 0.0 16.28999089631971 0.0 0.0 0.0 34.185847837958455" Properties=species:S:1:pos:R:3:initial_magmoms:R:1 pbc="T T T"
Si       1.43845630      -1.20787092       1.39779856       0.00000000
Si       1.70399657       0.98999217      -1.32645065       0.00000000
Si      -1.26623799       1.51208667       1.38242518       0.00000000
Si      -1.48682088      -1.41358104      -1.58445139       0.00000000
Si       0.17925516       1.59472584      -3.24585033       0.00000000
Si       0.08221563      -2.54069103       2.75487834       0.00000000
Si       0.35144046      -2.86123261      -2.44549082       0.00000000
Si      -2.66962149       2.71707426      -0.08906444       0.00000000
Si      -2.63707407       0.17387946       2.75231440       0.00000000
Si       2.78216163      -2.62297345       0.03725234       0.00000000
