10
Lattice="16.28999089631971 0.0 0.0 0.0 16.28999089631971 0.0 0.0 0.0 34.185847837958455" Properties=species:S:1:pos:R:3:initial_magmoms:R:1 pbc="T T T"
Si       1.35360126       1.33418358       1.36281959       0.00000000
Si       1.35386190      -1.35957806      -1.35485428       0.00000000
Si      -1.35987291       1.35329175      -1.35540125       0.00000000
Si      -1.38139200      -1.34703150       1.36945164       0.00000000
Si       2.56324779      -0.19414422       2.75483390       0.00000000
Si      -0.00197109       2.71265967      -2.71258017       0.00000000
Si       2.71306605      -0.00177561      -2.71278529       0.00000000
Si       2.71611087       2.71052568       0.00362370       0.00000000
Si      -2.71656927      -0.00197109      -2.71240924       0.00000000
Si      -0.00193851      -2.71697878      -2.71240924       0.00000000
