10
Lattice="16.28999089631971 0.0 0.0 0.0 16.28999089631971 0.0 0.0 0.0 34.185847837958455" Properties=species:S:1:pos:R:3:initial_magmoms:R:1 pbc="T T T"
Si       1.51926797      -1.78719219      -0.49535321       0.00000000
Si       0.11992698       0.55161198       2.52161792       0.00000000
Si      -1.72076157      -1.00457172      -1.81831208       0.00000000
Si       1.35216352       2.09805426      -1.42066207       0.00000000
Si      -2.59634907      -1.65592737       0.21694351       0.00000000
Si       2.78509220      -1.05909435       1.31574565       0.00000000
Si       1.53969075       2.39272407       2.00031763       0.00000000
Si      -2.56795560       2.28191949       1.07541900       0.00000000
Si       0.74502315       3.69923094       0.20244870       0.00000000
Si       0.55133505      -3.80393396       0.20644845       0.00000000
