10
Lattice="16.28999089631971 0.0 0.0 0.0 16.28999089631971 0.0 0.0 0.0 34.185847837958455" Properties=species:S:1:pos:R:3:initial_magmoms:R:1 pbc="T T T"
Si      -0.37771623      -0.23990283      -2.26905273       0.00000000
Si       2.20076271       0.59831541       0.53118000       0.00000000
Si      -0.92721051      -1.49502127       1.54820954       0.00000000
Si      -0.32226507       2.39283810      -0.18258672       0.00000000
Si       0.13888854       2.09390031      -2.64239659       0.00000000
Si      -2.02398363       0.18645534       2.77004661       0.00000000
Si       1.67192415       2.28315753       2.17152045       0.00000000
Si      -2.76138306      -2.54391107       0.48919976       0.00000000
Si       3.26304894       1.21621140      -1.54140655       0.00000000
Si       3.44825810      -1.14556004       1.38192949       0.00000000
