10
Lattice="16.28999089631971 0.0 0.0 0.0 16.28999089631971 0.0 0.0 0.0 34.185847837958455" Properties=species:S:1:pos:R:3:initial_magmoms:R:1 pbc="T T T"
Si      -1.35044915      -1.35708732       1.32959092       0.00000000
Si      -1.35841984       1.35467640      -1.35704217       0.00000000
Si       1.35638685      -1.35791811      -1.35611916       0.00000000
Si       1.35273789       1.36490652       1.35717892       0.00000000
Si       2.65711077      -0.07239276       2.67155713       0.00000000
Si      -2.71238993       2.71375110       0.00382882       0.00000000
Si      -0.00061902       2.71410948      -2.71340063       0.00000000
Si       2.71614573       2.71138905       0.00314510       0.00000000
Si      -2.71487448      -0.00127062      -2.71340063       0.00000000
Si       2.71502172      -0.00081450      -2.71370830       0.00000000
