10
Lattice="16.28999089631971 0.0 0.0 0.0 16.28999089631971 0.0 0.0 0.0 34.185847837958455" Properties=species:S:1:pos:R:3:initial_magmoms:R:1 pbc="T T T"
Si       2.03064624       0.77001201      -0.93898321       0.00000000
Si      -2.05415271       1.16843283       0.40838437       0.00000000
Si      -0.86488497      -1.49358123      -1.74911988       0.00000000
Si       1.09555137      -0.55462563       2.29988838       0.00000000
Si       1.22043051       1.52334306      -3.09953000       0.00000000
Si      -0.37279665      -0.22683825      -3.67997183       0.00000000
Si       0.62773515      -3.33346247      -1.51686110       0.00000000
Si       2.76162741       2.45368125       0.63848944       0.00000000
Si       2.93381271      -2.00227720       1.43884895       0.00000000
Si      -3.94620363      -0.45949203       0.02351988       0.00000000
