10
Lattice="16.28999089631971 0.0 0.0 0.0 16.28999089631971 0.0 0.0 0.0 34.185847837958455" Properties=species:S:1:pos:R:3:initial_magmoms:R:1 pbc="T T T"
Si       1.32732549       1.36687761       1.38268499       0.00000000
Si      -1.40413284       1.29313278      -1.39021272       0.00000000
Si      -1.38984651      -1.35014778       1.37509573       0.00000000
Si       1.46362392      -1.50988752      -1.54432261       0.00000000
Si      -2.18790990      -0.62667630      -2.59519787       0.00000000
Si      -0.49443408      -2.38005045      -2.63683284       0.00000000
Si       2.67154371       2.69128719       0.00562016       0.00000000
Si       2.67961880       0.01130526       2.73418906       0.00000000
Si       2.70228996      -2.72673423       0.00449202       0.00000000
Si      -0.03407868      -2.70410742       2.73405231       0.00000000
