10
Lattice="16.28999089631971 0.0 0.0 0.0 16.28999089631971 0.0 0.0 0.0 34.185847837958455" Properties=species:S:1:pos:R:3:initial_magmoms:R:1 pbc="T T T"
Si       0.54879381       1.33527501       1.84077219       0.00000000
Si      -1.59265701      -1.76396265       0.03815143       0.00000000
Si      -1.12912506       1.75575249      -1.14679909       0.00000000
Si       2.12845140      -0.26300205      -1.05268540       0.00000000
Si       1.36673100       3.09959604       0.27495693       0.00000000
Si       1.34394129      -1.01509506      -3.17706354       0.00000000
Si       3.00646611       1.93282479      -0.88637116       0.00000000
Si      -0.80547534      -3.51433944      -1.30942126       0.00000000
Si      -1.42434873      -2.92353372       2.09091018       0.00000000
Si      -2.97189873       2.53858473       0.04741580       0.00000000
