10
Lattice="16.28999089631971 0.0 0.0 0.0 16.28999089631971 0.0 0.0 0.0 34.185847837958455" Properties=species:S:1:pos:R:3:initial_magmoms:R:1 pbc="T T T"
Si      -1.35575154      -1.35734796      -1.35670032       0.00000000
Si      -1.35531171       1.35824391       1.35752078       0.00000000
Si       1.35956241       1.35778779      -1.35642683       0.00000000
Si       1.36233270      -1.35746199       1.36093936       0.00000000
Si      -2.69905752      -0.01093059       2.72215221       0.00000000
Si      -2.71272483      -0.00004887      -2.71346900       0.00000000
Si      -2.71331127       2.71362078       0.00064953       0.00000000
Si       2.71526022       2.71283886      -0.00013674       0.00000000
Si       0.00267156      -2.71466334      -2.71384505       0.00000000
Si       0.00162900       2.71487511      -2.71374249       0.00000000
