10
Lattice="16.28999089631971 0.0 0.0 0.0 16.28999089631971 0.0 0.0 0.0 34.185847837958455" Properties=species:S:1:pos:R:3:initial_magmoms:R:1 pbc="T T T"
Si      -0.17976015       1.59741369       1.66136476       0.00000000
Si       2.17389073       0.92255157      -0.21403771       0.00000000
Si      -1.37098336       0.14825529      -1.94541513       0.00000000
Si      -0.31736178      -2.21842107       0.83618631       0.00000000
Si      -2.66344825      -0.95159664       1.39409965       0.00000000
Si       2.75337490       0.60004215       2.05491246       0.00000000
Si      -3.47366398      -0.19826559      -0.76644714       0.00000000
Si      -1.93246708       0.73207260       2.97157230       0.00000000
Si       2.35690888      -1.67741388       2.40056576       0.00000000
Si       3.26825293      -0.28966878      -1.90521255       0.00000000
