10
Lattice="16.28999089631971 0.0 0.0 0.0 16.28999089631971 0.0 0.0 0.0 34.185847837958455" Properties=species:S:1:pos:R:3:initial_magmoms:R:1 pbc="T T T"
Si      -0.90290420       1.63349604       1.41020120       0.00000000
Si      -1.74343932      -0.95781942      -1.27940607       0.00000000
Si       0.99316872       1.82278584      -1.20884644       0.00000000
Si       0.96555717      -2.16132462       1.38531389       0.00000000
Si      -0.38321411      -2.20968963      -2.66793343       0.00000000
Si       2.31997293       0.51230421      -2.64034543       0.00000000
Si      -0.68658929       0.39239352       3.65569987       0.00000000
Si      -2.56635008      -2.75939568      -0.05582552       0.00000000
Si       2.66136246      -2.75685444      -0.23205366       0.00000000
Si       2.25504099       3.18704076       0.27417065       0.00000000
