10
Lattice="16.28999089631971 0.0 0.0 0.0 16.28999089631971 0.0 0.0 0.0 34.185847837958455" Properties=species:S:1:pos:R:3:initial_magmoms:R:1 pbc="T T T"
Si       1.42763931       1.29611385       1.37331465       0.00000000
Si       1.29979539      -0.14765256      -1.97683194       0.00000000
Si      -2.07921650       1.03136877      -0.52290702       0.00000000
Si      -0.47444625      -2.31474384       0.46827801       0.00000000
Si      -1.58715099       1.04212017      -2.89933756       0.00000000
Si       3.12373782      -0.25161534       1.63681931       0.00000000
Si      -2.58994547      -2.34380520      -0.68713593       0.00000000
Si      -3.68579888      -0.48619134       0.30798048       0.00000000
Si       2.22342210       2.99452554      -0.09619903       0.00000000
Si       2.24129223      -2.42040078      -1.79325384       0.00000000
