10
Lattice="16.28999089631971 0.0 0.0 0.0 16.28999089631971 0.0 0.0 0.0 34.185847837958455" Properties=species:S:1:pos:R:3:initial_magmoms:R:1 pbc="T T T"
Si      -1.44008717       1.27711971       1.31099381       0.00000000
Si      -1.35739913      -1.35000117      -1.35834124       0.00000000
Si       1.35546321       1.36637262      -1.35974286       0.00000000
Si       1.38092448      -1.38836412       1.42650786       0.00000000
Si      -0.06232228       2.44371177       2.78225097       0.00000000
Si      -2.42403575      -0.29232405       2.80378806       0.00000000
Si       2.70772869      -2.69884575      -0.00499114       0.00000000
Si       2.70683274       2.71715571       0.01887060       0.00000000
Si      -0.00342905      -2.70907587      -2.71921223       0.00000000
Si       2.71162200       0.00775404      -2.71808409       0.00000000
