10
Lattice="16.28999089631971 0.0 0.0 0.0 16.28999089631971 0.0 0.0 0.0 34.185847837958455" Properties=species:S:1:pos:R:3:initial_magmoms:R:1 pbc="T T T"
Si       0.02095220      -2.20931496      -0.74217517       0.00000000
Si      -0.33715739      -0.12188178       2.35981621       0.00000000
Si      -1.83735954       1.14290640      -1.04451498       0.00000000
Si       2.18813470       0.78781698      -0.79608628       0.00000000
Si      -0.86942662       3.15964817      -1.74631664       0.00000000
Si       0.54804121       1.86880739       3.31158493       0.00000000
Si       0.51301771      -2.19856356      -3.11860571       0.00000000
Si       2.10016870      -3.24068373      -0.21926815       0.00000000
Si       0.39639760       3.88774601       0.06478222       0.00000000
Si      -2.23578036       0.37178667      -3.19272067       0.00000000
