10
Lattice="16.28999089631971 0.0 0.0 0.0 16.28999089631971 0.0 0.0 0.0 34.185847837958455" Properties=species:S:1:pos:R:3:initial_magmoms:R:1 pbc="T T T"
Si       1.03088170       0.61512899      -2.02407681       0.00000000
Si       0.45241240      -2.27457270       0.47826028       0.00000000
Si       0.01295218       1.54177587       1.79793730       0.00000000
Si      -1.68362593      -0.68119893      -1.57713079       0.00000000
Si       0.14568310      -1.37556018      -2.97584553       0.00000000
Si      -1.23454321       3.28565132       0.94718782       0.00000000
Si       1.05618007      -3.12212511      -1.67763723       0.00000000
Si      -1.64874904      -3.15687168       1.17469476       0.00000000
Si       2.25812143       2.28049316       2.09391854       0.00000000
Si       3.28647655       1.00413582      -1.71483146       0.00000000
