10
Lattice="10.86 0.0 0.0 0.0 10.86 0.0 0.0 0.0 10.86" Properties=species:S:1:pos:R:3:initial_magmoms:R:1 pbc="T T T"
Si      -1.15226772       1.31050878      -1.25154984       0.00000000
Si       1.33799544      -1.34756310      -1.16583186       0.00000000
Si      -1.15226772      -1.40449122       1.46345016       0.00000000
Si       1.56273228       1.31050878       1.46345016       0.00000000
Si      -2.50976772      -0.04699122      -2.60904984       0.00000000
Si      -2.50976772       2.66800878       0.10595016       0.00000000
Si      -2.50976772      -2.76199122       0.10595016       0.00000000
Si       0.20523228       2.66800878      -2.60904984       0.00000000
Si       0.10800270      -2.54829900      -2.77199328       0.00000000
Si      -2.50976772      -0.04699122       2.82095016       0.00000000
