10
Lattice="16.28999089631971 0.0 0.0 0.0 16.28999089631971 0.0 0.0 0.0 34.33025523377368" Properties=species:S:1:pos:R:3:initial_magmoms:R:1 pbc="T T T"
Si       1.01226060      -1.63649081       1.33345995       0.00000000
Si      -1.73795471       1.09279184       1.30517867       0.00000000
Si       1.75285287       1.84266941       0.19743341       0.00000000
Si      -0.14870978      -0.81797140      -2.49934495       0.00000000
Si       1.69556094       2.32198637      -2.09812703       0.00000000
Si       2.35716300      -0.27045635       2.70634136       0.00000000
Si      -0.37687404       2.46185231       2.70198141       0.00000000
Si       2.52275085      -2.86814513      -0.13731423       0.00000000
Si       1.70417835       0.44928797      -3.47998924       0.00000000
Si      -0.36966245      -2.98026920       2.69604228       0.00000000
