10
Lattice="16.28999089631971 0.0 0.0 0.0 16.28999089631971 0.0 0.0 0.0 34.33025523377368" Properties=species:S:1:pos:R:3:initial_magmoms:R:1 pbc="T T T"
Si      -1.07983152       0.02560788      -2.03818839       0.00000000
Si       2.21211684       0.30393882      -0.74531026       0.00000000
Si      -0.51629526       1.70165340       1.54743712       0.00000000
Si      -0.04598667      -2.12729481       1.10176150       0.00000000
Si       2.96523612       0.10016721       1.43733993       0.00000000
Si      -2.41366812      -1.83068649      -1.57497000       0.00000000
Si       1.59861915       1.61091810       2.56968970       0.00000000
Si      -2.39211645       2.01119598      -1.96039599       0.00000000
Si       2.18097036      -2.18013957       2.06187628       0.00000000
Si      -1.03335615      -3.57847317      -0.63057848       0.00000000
