10
Lattice="16.28999089631971 0.0 0.0 0.0 16.28999089631971 0.0 0.0 0.0 34.33025523377368" Properties=species:S:1:pos:R:3:initial_magmoms:R:1 pbc="T T T"
Si      -1.76346066       1.30028409      -0.78973363       0.00000000
Si       1.65125214       0.72034380      -1.51976692       0.00000000
Si      -1.10868925      -2.01896631      -0.66291760       0.00000000
Si       0.41966298      -0.02257794       2.36436033       0.00000000
Si      -3.31114517       0.57809952       0.87755047       0.00000000
Si      -3.02934446      -1.77295473       0.72941534       0.00000000
Si      -1.78747631       0.66352428      -3.16398108       0.00000000
Si       0.50499000      -3.69875853      -0.32737350       0.00000000
Si      -1.63668709      -1.70445528      -2.96613571       0.00000000
Si       2.08104750      -1.61290548       2.73869764       0.00000000
