10
Lattice="16.28999089631971 0.0 0.0 0.0 16.28999089631971 0.0 0.0 0.0 34.33025523377368" Properties=species:S:1:pos:R:3:initial_magmoms:R:1 pbc="T T T"
Si       1.70092035       1.45401282       0.62947991       0.00000000
Si      -1.78567722       1.40370930      -0.60778318       0.00000000
Si       0.85967217      -0.71408844      -2.09380344       0.00000000
Si      -0.37571256      -1.01479044       2.11968846       0.00000000
Si       0.49953285       2.38254282       2.41544378       0.00000000
Si      -2.64918731      -0.20012754      -2.17324369       0.00000000
Si      -1.03705398      -1.80928862      -2.88878960       0.00000000
Si       3.27958425      -0.02233359       1.42226894       0.00000000
Si       2.13289857       2.53949697      -1.41111160       0.00000000
Si      -1.12084974       0.87425172       3.32866341       0.00000000
