10
Lattice="16.28999089631971 0.0 0.0 0.0 16.28999089631971 0.0 0.0 0.0 34.33025523377368" Properties=species:S:1:pos:R:3:initial_magmoms:R:1 pbc="T T T"
Si      -2.04113700       1.22539896       0.29383282       0.00000000
Si       0.52763310      -1.90045656       1.42017479       0.00000000
Si       1.72226025       1.73488500      -0.34278779       0.00000000
Si       0.24636996      -0.72189135      -2.35292835       0.00000000
Si      -1.28542761       3.43819998       0.36050221       0.00000000
Si       0.87029325      -0.84170430       3.48493482       0.00000000
Si       2.24394750      -2.97365805       0.08242699       0.00000000
Si       0.29999664       3.37637943      -1.56017365       0.00000000
Si      -3.02858793       0.45817254       2.26459655       0.00000000
Si      -1.25778348       0.26410977       3.81247997       0.00000000
