10
Lattice="16.28999089631971 0.0 0.0 0.0 16.28999089631971 0.0 0.0 0.0 34.33025523377368" Properties=species:S:1:pos:R:3:initial_magmoms:R:1 pbc="T T T"
Si      -1.29994200      -1.26309402      -1.41241413       0.00000000
Si      -1.51539354       1.18094355       1.35042941       0.00000000
Si       1.22365593      -1.54766403       1.33990031       0.00000000
Si       1.42403922       1.37036367      -1.44949083       0.00000000
Si      -2.19558249       0.38333628      -2.90749758       0.00000000
Si      -0.15410340       2.52177345       2.72975461       0.00000000
Si       2.66056425       2.61289971       0.08930334       0.00000000
Si       2.56665240      -0.19947105       2.72996059       0.00000000
Si      -2.72123961       2.62332531      -0.23925798       0.00000000
Si      -2.64897066      -2.78246232      -0.06108729       0.00000000
