10
Lattice="16.28999089631971 0.0 0.0 0.0 16.28999089631971 0.0 0.0 0.0 34.33025523377368" Properties=species:S:1:pos:R:3:initial_magmoms:R:1 pbc="T T T"
Si       1.08342509      -0.56494697      -1.93186753       0.00000000
Si      -1.45359158       1.80079434      -0.26492673       0.00000000
Si      -1.41923597      -1.88728514       0.08984233       0.00000000
Si       1.60724145       0.20992923       1.72684713       0.00000000
Si       2.62041429       1.23338106      -2.00262223       0.00000000
Si      -2.46420689      -1.70543987      -1.99321573       0.00000000
Si       1.67310192      -2.88164303      -1.43085151       0.00000000
Si       0.12803777      -3.64450373       0.24213143       0.00000000
Si       3.27590760       1.62942354       0.71039637       0.00000000
Si      -0.19851808       3.48320925      -1.54445039       0.00000000
