10
Lattice="16.28999089631971 0.0 0.0 0.0 16.28999089631971 0.0 0.0 0.0 34.33025523377368" Properties=species:S:1:pos:R:3:initial_magmoms:R:1 pbc="T T T"
Si       1.58140062       0.83351043      -1.50503923       0.00000000
Si      -1.07847945      -1.67852160      -1.33623727       0.00000000
Si      -1.76150286       1.81543905      -0.11366754       0.00000000
Si       1.27265625       0.12678507       2.33456165       0.00000000
Si       2.73450456       2.27581074      -0.01991156       0.00000000
Si       0.26179659       2.22035958      -2.91323276       0.00000000
Si      -1.33128396       2.81903337       2.14948714       0.00000000
Si       2.68744275      -2.72272689      -0.03034796       0.00000000
Si      -2.45793294      -0.49158333      -2.89641092       0.00000000
Si      -2.91038769      -2.53337193       0.05788084       0.00000000
