10
Lattice="16.28999089631971 0.0 0.0 0.0 16.28999089631971 0.0 0.0 0.0 34.33025523377368" Properties=species:S:1:pos:R:3:initial_magmoms:R:1 pbc="T T T"
Si      -1.23171948       0.82497447       1.81964187       0.00000000
Si      -1.80740808      -0.31690566      -1.46607437       0.00000000
Si       0.98719029      -2.15694261       0.33811887       0.00000000
Si       1.48739103       1.75868469      -0.74397138       0.00000000
Si      -0.32003334      -0.26199207      -3.32492141       0.00000000
Si       2.51616969      -0.05102028       2.25251230       0.00000000
Si       0.54907074       1.77277554       2.94406134       0.00000000
Si       3.31677432       0.55873071      -1.68822557       0.00000000
Si       1.62087129       3.22165701       1.19112320       0.00000000
Si       1.98658179      -2.36312514       2.42337407       0.00000000
