10
Lattice="16.28999089631971 0.0 0.0 0.0 16.28999089631971 0.0 0.0 0.0 34.33025523377368" Properties=species:S:1:pos:R:3:initial_magmoms:R:1 pbc="T T T"
Si      -1.31518944      -1.12648608      -1.60250288       0.00000000
Si       0.51776136       2.17646522      -0.78959631       0.00000000
Si      -1.30010490       0.04025259       2.00526566       0.00000000
Si       1.89237672      -1.50522858       0.06309904       0.00000000
Si       0.32928606      -1.52635671      -3.27891884       0.00000000
Si       1.11855285      -2.98304109       1.75647416       0.00000000
Si       1.68352263       3.11908607       0.98369968       0.00000000
Si       0.22379202       0.68346717       3.64007333       0.00000000
Si       2.21811156       1.48184496       2.65091513       0.00000000
Si      -1.93279221      -3.18568869      -0.58313404       0.00000000
