10
Lattice="16.28999089631971 0.0 0.0 0.0 16.28999089631971 0.0 0.0 0.0 34.33025523377368" Properties=species:S:1:pos:R:3:initial_magmoms:R:1 pbc="T T T"
Si       0.81971769       2.17137555      -0.11054348       0.00000000
Si      -0.47354704      -0.44673696      -2.25391984       0.00000000
Si       2.07088743      -1.11298167       0.26183700       0.00000000
Si      -1.72925096      -0.49896270       1.79811678       0.00000000
Si      -1.70027105      -2.43598868      -1.98511379       0.00000000
Si      -0.96800297       3.46763601      -0.79512349       0.00000000
Si       3.69127002       0.39530943      -0.65138263       0.00000000
Si      -0.78324878      -3.68626182      -0.09681137       0.00000000
Si      -1.40608994      -2.80043508       2.13805516       0.00000000
Si       1.02661698       2.99362959       2.10430850       0.00000000
