10
Lattice="16.28999089631971 0.0 0.0 0.0 16.28999089631971 0.0 0.0 0.0 34.33025523377368" Properties=species:S:1:pos:R:3:initial_magmoms:R:1 pbc="T T T"
Si       1.16576127       0.94262085       1.77329599       0.00000000
Si      -0.51776136      -2.17646522       0.78959631       0.00000000
Si       1.55747061      -0.00663003      -1.79252095       0.00000000
Si      -1.85850981       1.38860847      -0.55223679       0.00000000
Si      -0.55583109       3.17741337      -1.60318949       0.00000000
Si       0.57174642      -1.58109160      -3.27150350       0.00000000
Si      -0.12396690       2.80365561       2.41578708       0.00000000
Si      -2.94969546       0.21466962      -2.23503819       0.00000000
Si       1.16048331       2.10421188      -2.94093729       0.00000000
Si      -1.83295080      -3.30295130      -0.81290657       0.00000000
