10
Lattice="16.28999089631971 0.0 0.0 0.0 16.28999089631971 0.0 0.0 0.0 34.33025523377368" Properties=species:S:1:pos:R:3:initial_magmoms:R:1 pbc="T T T"
Si       1.34241003       1.33304328       1.36628313       0.00000000
Si       1.35772263      -1.31116581      -1.43639585       0.00000000
Si      -1.37648871      -1.37108043       1.36065296       0.00000000
Si      -1.01330316       1.58770485      -1.51168214       0.00000000
Si      -1.01970513      -0.13994739      -3.12059589       0.00000000
Si      -0.27743499      -2.39142087      -2.82425696       0.00000000
Si      -2.71109583       2.69923671      -0.02408612       0.00000000
Si       2.69786835       2.72223819      -0.00763505       0.00000000
Si      -0.01158219       2.69773803       2.72500673       0.00000000
Si       2.68455942      -2.74040154      -0.00823240       0.00000000
