10
Lattice="16.28999089631971 0.0 0.0 0.0 16.28999089631971 0.0 0.0 0.0 34.33025523377368" Properties=species:S:1:pos:R:3:initial_magmoms:R:1 pbc="T T T"
Si       1.35752715      -1.35734796       1.35532490       0.00000000
Si      -1.35806472      -1.35650088      -1.35786534       0.00000000
Si       1.35702216       1.35817875      -1.35810566       0.00000000
Si      -1.36138788       1.35949824       1.35971918       0.00000000
Si       2.70076797      -0.00645084       2.72280272       0.00000000
Si       2.71428867      -2.71176372      -0.00010299       0.00000000
Si      -2.71394658      -2.71275741      -0.00017165       0.00000000
Si      -0.00148239      -2.71275741      -2.71528439       0.00000000
Si       0.00742824      -2.70311373       2.72541183       0.00000000
Si       2.71334385       2.71611315       0.00037763       0.00000000
