10
Lattice="16.28999089631971 0.0 0.0 0.0 16.28999089631971 0.0 0.0 0.0 34.33025523377368" Properties=species:S:1:pos:R:3:initial_magmoms:R:1 pbc="T T T"
Si       0.00861741      -1.87269840      -1.38186221       0.00000000
Si       0.05729193      -0.47931696       2.29556044       0.00000000
Si       1.73364696       1.32625035      -0.92413666       0.00000000
Si      -1.96306392       1.43417160       0.07768941       0.00000000
Si      -1.69556094      -2.32198637       2.09812703       0.00000000
Si      -1.45950255       2.77374717      -1.85479607       0.00000000
Si      -1.84427072      -3.13995777      -0.40121792       0.00000000
Si       0.70501491       3.43106496      -1.07797062       0.00000000
Si      -0.70431444       1.48072842       3.43738537       0.00000000
Si      -0.41523210      -1.33286409      -3.69726756       0.00000000
