10
Lattice="16.28999089631971 0.0 0.0 0.0 16.28999089631971 0.0 0.0 0.0 34.33025523377368" Properties=species:S:1:pos:R:3:initial_magmoms:R:1 pbc="T T T"
Si      -1.16449065      -1.05653682      -1.72056469       0.00000000
Si       0.73326177      -0.86693751       2.05473558       0.00000000
Si      -1.82938329       1.19995398       0.94425420       0.00000000
Si       2.32811793       0.16552269      -0.71846398       0.00000000
Si       2.92843701      -0.20865861       1.59759365       0.00000000
Si      -0.32198814      -3.25651761      -1.67322324       0.00000000
Si      -2.56707594       2.58838326      -0.77373572       0.00000000
Si      -3.31677432      -0.55873071       1.68822557       0.00000000
Si       1.10012886      -3.14568045       1.79818544       0.00000000
Si      -0.48474153      -0.04048065      -3.75634997       0.00000000
