10
Lattice="16.28999089631971 0.0 0.0 0.0 16.28999089631971 0.0 0.0 0.0 34.33025523377368" Properties=species:S:1:pos:R:3:initial_magmoms:R:1 pbc="T T T"
Si       1.45181367      -1.30772862      -1.29301889       0.00000000
Si       1.35883035       1.33899469       1.37258617       0.00000000
Si      -1.35842310      -1.37898108       1.36750529       0.00000000
Si      -1.29917637       1.42063202      -1.46075661       0.00000000
Si      -2.18211066      -0.24029379      -3.07251291       0.00000000
Si       2.69851995       2.68917668      -0.00618632       0.00000000
Si      -2.71987614       2.67865334      -0.00234476       0.00000000
Si       0.00314397       2.69166905       2.72420340       0.00000000
Si      -2.71704168      -2.71922454       0.00565076       0.00000000
Si      -2.71358820      -0.01922531       2.72894098       0.00000000
