10
Lattice="16.28999089631971 0.0 0.0 0.0 16.28999089631971 0.0 0.0 0.0 34.33025523377368" Properties=species:S:1:pos:R:3:initial_magmoms:R:1 pbc="T T T"
Si      -1.33198443      -1.36627488      -1.36263725       0.00000000
Si       1.35658233      -1.35278676       1.35686977       0.00000000
Si      -1.35778779       1.36047050       1.35786534       0.00000000
Si       1.35176049       1.37686519      -1.36695257       0.00000000
Si      -2.62211985       0.07296291      -2.66158841       0.00000000
Si      -0.21111840       2.57302409      -2.80175206       0.00000000
Si       2.71467963      -2.71226871      -0.00175084       0.00000000
Si       0.00000000      -2.71182888       2.71573069       0.00000000
Si      -2.71562445      -2.71274112       0.00254044       0.00000000
Si       2.71531494       0.00254124       2.71525006       0.00000000
