10
Lattice="16.28999089631971 0.0 0.0 0.0 16.28999089631971 0.0 0.0 0.0 34.33025523377368" Properties=species:S:1:pos:R:3:initial_magmoms:R:1 pbc="T T T"
Si       1.14214566      -1.49060016       1.43062493       0.00000000
Si      -1.56255298       1.21891554       1.41477807       0.00000000
Si       1.34902866       1.51936830      -1.35132684       0.00000000
Si      -0.11660382      -1.53715698      -1.92907103       0.00000000
Si       2.50573269      -0.13558167       2.78919404       0.00000000
Si      -0.21799278       2.58735699       2.78819846       0.00000000
Si      -2.84700560       2.55531456      -0.04580002       0.00000000
Si       2.64897066       2.78246232       0.06108729       0.00000000
Si       0.38695755      -0.19758141      -3.86155651       0.00000000
Si       1.90375203      -3.45064554       0.28880000       0.00000000
