10
Lattice="16.28999089631971 0.0 0.0 0.0 16.28999089631971 0.0 0.0 0.0 34.33025523377368" Properties=species:S:1:pos:R:3:initial_magmoms:R:1 pbc="T T T"
Si       1.34728605      -1.34822556      -1.35982217       0.00000000
Si       1.35615269       1.35580041       1.35408901       0.00000000
Si      -1.35563450       1.35053874      -1.36037145       0.00000000
Si      -1.35784994      -1.35711990       1.35456964       0.00000000
Si      -0.00012572       2.71379997       2.71147373       0.00000000
Si       2.71410338      -0.00074934       2.71178271       0.00000000
Si      -2.71531193      -0.00153126       2.71126775       0.00000000
Si      -0.00073964      -2.71578735       2.71205735       0.00000000
Si       2.71413596       2.71495656      -0.00580182       0.00000000
Si      -2.71451372       2.71490769      -0.00470325       0.00000000
