10
Lattice="16.28999089631971 0.0 0.0 0.0 16.28999089631971 0.0 0.0 0.0 34.33025523377368" Properties=species:S:1:pos:R:3:initial_magmoms:R:1 pbc="T T T"
Si      -1.15426053      -1.95981732      -0.66350121       0.00000000
Si       1.87670574       0.63951282      -1.30355485       0.00000000
Si       0.82718991       0.25910874       2.21471466       0.00000000
Si       0.34261128       1.64478501      -2.70841834       0.00000000
Si      -1.35925389      -0.13494636       3.11468281       0.00000000
Si      -0.95417046       3.20699831      -1.11199192       0.00000000
Si      -2.25818496      -1.12888071      -2.55338282       0.00000000
Si      -3.12504102       0.85501323       1.89530579       0.00000000
Si       2.26782864      -1.60886556       2.63986078       0.00000000
Si      -2.36481930       2.97674356       1.11312482       0.00000000
