10
Lattice="16.28999089631971 0.0 0.0 0.0 16.28999089631971 0.0 0.0 0.0 34.33025523377368" Properties=species:S:1:pos:R:3:initial_magmoms:R:1 pbc="T T T"
Si      -1.34553771      -1.35730886       1.39258012       0.00000000
Si       1.36108067       1.36906047       1.39680274       0.00000000
Si       1.73795471      -1.09279184      -1.30517867       0.00000000
Si      -1.64561580       1.22666958      -1.48249454       0.00000000
Si       3.49080758       0.74987757      -1.10774526       0.00000000
Si      -2.70747945      -2.69731987       0.02809933       0.00000000
Si       2.72920121       2.70992295       0.03407966       0.00000000
Si      -2.70387936       2.74119975       0.01770069       0.00000000
Si      -2.69990460       0.00149868       2.75302023       0.00000000
Si       0.01222515      -2.71266637       2.75281425       0.00000000
