10
Lattice="16.28999089631971 0.0 0.0 0.0 16.28999089631971 0.0 0.0 0.0 34.33025523377368" Properties=species:S:1:pos:R:3:initial_magmoms:R:1 pbc="T T T"
Si      -1.35451350       1.36606311       1.34773791       0.00000000
Si      -1.37283975      -1.34382726      -1.36837041       0.00000000
Si       1.34574500       1.37013561      -1.37118549       0.00000000
Si       1.36694833      -1.33957557       1.56422462       0.00000000
Si       2.70524676      -2.68108965       0.00202549       0.00000000
Si       2.69768006       2.72678310       0.00659141       0.00000000
Si      -2.73751821      -2.69138982       0.01071105       0.00000000
Si      -0.01391166      -2.69998442      -2.73087034       0.00000000
Si       2.70201157       0.01508454      -2.73121364       0.00000000
Si      -2.72986191       0.01643661      -2.73021806       0.00000000
