10
Lattice="16.28999089631971 0.0 0.0 0.0 16.28999089631971 0.0 0.0 0.0 34.33025523377368" Properties=species:S:1:pos:R:3:initial_magmoms:R:1 pbc="T T T"
Si      -1.35193505      -1.35664749      -1.37777690       0.00000000
Si       1.36226754       1.35938421      -1.37794855       0.00000000
Si      -1.25739317       1.48986711       1.39665855       0.00000000
Si       1.37580453      -1.17895617       1.58736323       0.00000000
Si       0.49230009       2.36964114       2.89781846       0.00000000
Si       2.26848024       0.68429403       2.95336485       0.00000000
Si       2.71938744      -2.69063559       0.01610090       0.00000000
Si      -2.69768006      -2.72678310      -0.00659141       0.00000000
Si       2.72093499       2.72608263      -0.00092692       0.00000000
Si      -2.70287657       2.74414824      -0.00974980       0.00000000
