10
Lattice="16.28999089631971 0.0 0.0 0.0 16.28999089631971 0.0 0.0 0.0 34.33025523377368" Properties=species:S:1:pos:R:3:initial_magmoms:R:1 pbc="T T T"
Si      -1.40364414       1.24817238      -1.42192564       0.00000000
Si      -0.85908573      -1.84275738       1.22861186       0.00000000
Si       1.11775464       1.61055972       1.36878237       0.00000000
Si       1.33483518      -1.44345690      -1.42151367       0.00000000
Si       1.95001074       0.27147285       3.09326072       0.00000000
Si      -0.03056004       2.60407053      -2.79029604       0.00000000
Si       2.77224281       2.62899423       0.02365356       0.00000000
Si      -2.89698102       2.52512919      -0.01754277       0.00000000
Si       0.82160244      -3.59864019       1.09825981       0.00000000
Si      -2.71728603      -2.74488129      -0.03851857       0.00000000
