10
Lattice="16.28999089631971 0.0 0.0 0.0 16.28999089631971 0.0 0.0 0.0 34.33025523377368" Properties=species:S:1:pos:R:3:initial_magmoms:R:1 pbc="T T T"
Si       2.26409823       0.85028913      -0.41611726       0.00000000
Si      -1.54812504       1.90329102      -0.15057258       0.00000000
Si      -0.66186270      -2.36669265       0.65759641       0.00000000
Si       0.09765855      -1.23820290      -2.24712244       0.00000000
Si       0.51702831       0.42929037       2.63302906       0.00000000
Si       3.25671309      -1.23090498      -0.14573201       0.00000000
Si       2.20493295      -2.37571731      -1.91923399       0.00000000
Si      -3.70246355      -0.69538752       0.72052380       0.00000000
Si      -2.26050791       1.88410140      -2.54445695       0.00000000
Si      -2.54146969      -2.22990552       2.07828615       0.00000000
