10
Lattice="16.28999089631971 0.0 0.0 0.0 16.28999089631971 0.0 0.0 0.0 34.33025523377368" Properties=species:S:1:pos:R:3:initial_magmoms:R:1 pbc="T T T"
Si       1.10631906      -1.81714950       1.04779431       0.00000000
Si      -1.76523327      -0.04108338       1.58863345       0.00000000
Si       1.23271317       2.02398363       0.16622719       0.00000000
Si      -0.51702831      -0.42929037      -2.63302906       0.00000000
Si       1.74706992       0.42099876      -3.04914631       0.00000000
Si      -1.17889101      -2.79598302      -1.97543265       0.00000000
Si       2.30770656      -2.74567950      -0.73816956       0.00000000
Si      -0.52276239       3.67414434       0.05571804       0.00000000
Si      -2.06515335       1.47400065      -2.78360164       0.00000000
Si      -2.58495096      -2.21245893       1.69917693       0.00000000
