10
Lattice="16.28999089631971 0.0 0.0 0.0 16.28999089631971 0.0 0.0 0.0 34.33025523377368" Properties=species:S:1:pos:R:3:initial_magmoms:R:1 pbc="T T T"
Si      -1.35886782       1.35563751      -1.35916989       0.00000000
Si       1.35832536       1.35690813       1.35989083       0.00000000
Si      -1.35798327      -1.35915615       1.35989083       0.00000000
Si       1.36485765      -1.36730115      -1.35817432       0.00000000
Si      -2.71354438       2.71526607       0.00240312       0.00000000
Si      -2.71413596      -2.71495656       0.00580182       0.00000000
Si       2.71552671      -2.71420722       0.00350169       0.00000000
Si       0.00058644       2.71386513       2.71706957       0.00000000
Si      -2.71426168      -0.00115659       2.71727555       0.00000000
Si       2.71502172      -0.00048870       2.71710390       0.00000000
