10
Lattice="16.28999089631971 0.0 0.0 0.0 16.28999089631971 0.0 0.0 0.0 34.33025523377368" Properties=species:S:1:pos:R:3:initial_magmoms:R:1 pbc="T T T"
Si       1.35591444       1.35635427       1.35937588       0.00000000
Si      -1.35967417      -1.35869351       1.35961619       0.00000000
Si       1.36528119      -1.36559396      -1.34948876       0.00000000
Si      -1.36875585       1.36671471      -1.35384870       0.00000000
Si      -0.00063531       2.70757719      -2.71657178       0.00000000
Si       2.71339272      -2.71506460       0.00477191       0.00000000
Si       2.71362078       2.71568961       0.00367334       0.00000000
Si       2.71326240      -0.00115659       2.71720689       0.00000000
Si      -2.71604189       2.71494027       0.00597347       0.00000000
Si      -0.00193851       2.71419093       2.71775617       0.00000000
