10
Lattice="16.28999089631971 0.0 0.0 0.0 16.28999089631971 0.0 0.0 0.0 34.33025523377368" Properties=species:S:1:pos:R:3:initial_magmoms:R:1 pbc="T T T"
Si      -1.96791345       0.21973581       1.36256859       0.00000000
Si       0.89816544      -2.26043298      -0.13491798       0.00000000
Si       1.53832986       1.45044531       1.31426590       0.00000000
Si      -0.88146819      -0.92800872      -2.69252342       0.00000000
Si      -1.20551864      -3.18914217       0.66786116       0.00000000
Si      -3.07023236      -1.73631852       0.64413894       0.00000000
Si       2.47381569       2.73904947      -0.54537074       0.00000000
Si       2.73662226      -2.10417930       1.49371024       0.00000000
Si      -3.46146929       1.16142813      -1.08531730       0.00000000
Si       0.89471196      -2.61335583      -2.63697704       0.00000000
