10
Lattice="16.28999089631971 0.0 0.0 0.0 16.28999089631971 0.0 0.0 0.0 34.33025523377368" Properties=species:S:1:pos:R:3:initial_magmoms:R:1 pbc="T T T"
Si      -1.61367925       1.67979222      -0.33554410       0.00000000
Si       0.73164906       0.02801880       2.25690657       0.00000000
Si       1.61657073       0.59015412      -1.63806904       0.00000000
Si      -0.81074190      -2.17212489      -0.58241311       0.00000000
Si       0.62920125      -0.86102424      -3.37040902       0.00000000
Si      -0.50499000       3.69875853       0.32737350       0.00000000
Si      -2.67992396      -2.49129486       0.82972840       0.00000000
Si       2.48712462      -1.62214191       2.36741572       0.00000000
Si      -1.33207240      -0.35867322       3.57000524       0.00000000
Si       3.84352776       0.53730936      -0.67795426       0.00000000
