10
Lattice="16.28999089631971 0.0 0.0 0.0 16.28999089631971 0.0 0.0 0.0 34.33025523377368" Properties=species:S:1:pos:R:3:initial_magmoms:R:1 pbc="T T T"
Si      -1.65448817      -1.01843451       1.34512881       0.00000000
Si       1.28340749      -1.39489641      -1.42587362       0.00000000
Si       1.23208747       1.66487058       1.19311436       0.00000000
Si      -1.44509651       1.32354621      -1.43785488       0.00000000
Si      -0.48844997       3.38630560       1.36916000       0.00000000
Si      -2.77224281      -2.62899423      -0.02365356       0.00000000
Si       2.62514637      -0.02728575      -2.81140916       0.00000000
Si       2.75201289      -2.72741841       0.10673282       0.00000000
Si      -0.09351521       2.69008173      -2.81312568       0.00000000
Si      -2.91460112       2.58727554      -0.06344235       0.00000000
