10
Lattice="16.28999089631971 0.0 0.0 0.0 16.28999089631971 0.0 0.0 0.0 34.33025523377368" Properties=species:S:1:pos:R:3:initial_magmoms:R:1 pbc="T T T"
Si       1.56856736       1.17939015      -1.28051924       0.00000000
Si      -1.23208747      -1.66487058      -1.19311436       0.00000000
Si      -1.72053744       1.72143502       0.17604565       0.00000000
Si       0.79835987      -0.18474489       2.34585631       0.00000000
Si       0.20868305       2.13195116       1.84484029       0.00000000
Si       0.04094817       2.40064820      -2.63309772       0.00000000
Si      -2.67718398      -0.34132437      -2.63096924       0.00000000
Si       2.75698802      -0.33788718      -2.63725168       0.00000000
Si      -3.33894894       0.99145827       1.78349209       0.00000000
Si       2.97636545       2.53360718       0.19194056       0.00000000
