10
Lattice="16.28999089631971 0.0 0.0 0.0 16.28999089631971 0.0 0.0 0.0 34.474598006748145" Properties=species:S:1:pos:R:3:initial_magmoms:R:1 pbc="T T T"
Si      -1.35762489      -1.35467712      -1.35750700       0.00000000
Si       1.35814617      -1.35689634       1.35709331       0.00000000
Si       1.35949824       1.35834002      -1.35619697       0.00000000
Si      -1.35824391       1.35804680       1.35781728       0.00000000
Si      -2.71342530      -0.00164692      -2.71129075       0.00000000
Si       2.71091664       0.00180005      -2.71659984       0.00000000
Si       2.71629234      -0.00034372       2.71266973       0.00000000
Si      -2.71557558      -0.00000489       2.71401424       0.00000000
Si       0.00053757      -2.71332009       2.71628957       0.00000000
Si       2.71472850      -2.71496538       0.00017237       0.00000000
