10
Lattice="16.28999089631971 0.0 0.0 0.0 16.28999089631971 0.0 0.0 0.0 34.474598006748145" Properties=species:S:1:pos:R:3:initial_magmoms:R:1 pbc="T T T"
Si       0.12150711       1.72002689       1.57504184       0.00000000
Si      -0.99033426       0.68888292      -2.01897149       0.00000000
Si       2.22896070      -0.88344810      -0.06867344       0.00000000
Si      -1.52702460      -1.72805202       0.72582859       0.00000000
Si       1.43397612      -2.57255820      -1.45903475       0.00000000
Si      -2.08210635       1.17502865       2.42821967       0.00000000
Si       1.00085760       0.86551213      -3.30094460       0.00000000
Si      -1.66063518      -1.11398418       2.97095357       0.00000000
Si      -0.32431761      -3.56629707      -0.16251335       0.00000000
Si       2.28846807      -2.22494589       1.87024799       0.00000000
