10
Lattice="16.28999089631971 0.0 0.0 0.0 16.28999089631971 0.0 0.0 0.0 34.474598006748145" Properties=species:S:1:pos:R:3:initial_magmoms:R:1 pbc="T T T"
Si       1.35809730      -1.35656604       1.36209213       0.00000000
Si      -1.35980775       1.35755973       1.36064419       0.00000000
Si      -1.37389860      -1.36933740      -1.35524892       0.00000000
Si       1.37103156       1.36324494      -1.37253449       0.00000000
Si      -2.61638577       0.09769113      -2.67670237       0.00000000
Si       2.70951570      -2.71310602       0.00168926       0.00000000
Si       2.71347417       2.71251306       0.00272349       0.00000000
Si      -2.71482624      -2.71655298       0.00699835       0.00000000
Si       2.71379997       0.00043983       2.71884069       0.00000000
Si      -0.00140094      -2.71490606       2.71828910       0.00000000
