10
Lattice="16.28999089631971 0.0 0.0 0.0 16.28999089631971 0.0 0.0 0.0 34.474598006748145" Properties=species:S:1:pos:R:3:initial_magmoms:R:1 pbc="T T T"
Si       1.05868710       1.70872326      -1.22646898       0.00000000
Si      -1.77253119      -1.12687704      -1.29269472       0.00000000
Si      -0.41866929       1.27052226       2.10743335       0.00000000
Si       1.81687257      -1.75099581       0.05636600       0.00000000
Si       2.26874088       0.24767316      -2.74300740       0.00000000
Si      -0.46390662      -2.47594968      -2.76448508       0.00000000
Si       2.10590604      -1.61243307       2.73997363       0.00000000
Si       2.42289315       3.04290684       0.24521795       0.00000000
Si      -1.76485860       3.21896916       1.53291386       0.00000000
Si      -2.76938145      -2.87956701       0.15396364       0.00000000
