10
Lattice="16.28999089631971 0.0 0.0 0.0 16.28999089631971 0.0 0.0 0.0 34.474598006748145" Properties=species:S:1:pos:R:3:initial_magmoms:R:1 pbc="T T T"
Si      -1.44352206      -0.16229727      -1.82687892       0.00000000
Si       2.03706450       0.34639056      -1.17458469       0.00000000
Si       0.06993297      -1.91717010       1.40494408       0.00000000
Si      -0.51160374       2.05244226       1.08926001       0.00000000
Si       3.42133983       1.33265232       0.41790131       0.00000000
Si       0.22198383      -3.76329951      -0.02533884       0.00000000
Si       2.32872066      -2.10898485       2.08595567       0.00000000
Si      -3.67754895      -0.40814595      -1.07298799       0.00000000
Si      -2.91318957       2.26476612       1.27983569       0.00000000
Si      -1.38127797       1.85622921      -3.14863574       0.00000000
