10
Lattice="16.28999089631971 0.0 0.0 0.0 16.28999089631971 0.0 0.0 0.0 34.474598006748145" Properties=species:S:1:pos:R:3:initial_magmoms:R:1 pbc="T T T"
Si       0.81906120       1.39851279      -1.69890914       0.00000000
Si       0.78354900       0.18924093       2.21561470       0.00000000
Si      -2.31759459       0.46058346      -0.18912775       0.00000000
Si       0.73994067      -2.03269878      -1.00521089       0.00000000
Si      -0.76238829      -1.82962764      -2.82274719       0.00000000
Si       0.01135413       0.29393676      -3.64686291       0.00000000
Si       3.15413496      -0.04088790       2.14145980       0.00000000
Si      -0.06198345      -1.70061084       3.44356610       0.00000000
Si       3.15970614       1.61134164      -1.49878399       0.00000000
Si       3.10842522      -1.94823513      -1.33309898       0.00000000
