10
Lattice="16.28999089631971 0.0 0.0 0.0 16.28999089631971 0.0 0.0 0.0 34.474598006748145" Properties=species:S:1:pos:R:3:initial_magmoms:R:1 pbc="T T T"
Si      -1.93692987      -0.25661637       1.44238351       0.00000000
Si       0.16922052      -2.17271133      -1.14059271       0.00000000
Si      -0.96011631       1.94284314      -1.25980594       0.00000000
Si       2.24775936       0.30077856       1.14928032       0.00000000
Si      -0.63702045      -1.48447512       3.01637840       0.00000000
Si       1.49752341       1.89061740       2.73594010       0.00000000
Si       2.53980648      -2.40284016      -1.21474761       0.00000000
Si       0.56135340       2.19613635      -3.06410398       0.00000000
Si      -3.68077437      -1.50560325       0.24687273       0.00000000
Si       3.64645134       1.79952372      -0.27662433       0.00000000
