10
Lattice="16.28999089631971 0.0 0.0 0.0 16.28999089631971 0.0 0.0 0.0 34.474598006748145" Properties=species:S:1:pos:R:3:initial_magmoms:R:1 pbc="T T T"
Si      -1.35713619       1.35664749       1.35985128       0.00000000
Si       1.35785295      -1.35936792       1.35943758       0.00000000
Si      -1.35850455      -1.35713619      -1.36631872       0.00000000
Si       1.36409202       1.35221661      -1.37779187       0.00000000
Si       0.09699066      -2.58704748      -2.76620192       0.00000000
Si       2.71313208       2.71728603      -0.00013790       0.00000000
Si       0.00043983       2.71391400       2.71666879       0.00000000
Si      -2.71391400       2.71723716      -0.00165478       0.00000000
Si      -2.71477737      -0.00063531       2.71684116       0.00000000
Si       2.71498914      -0.00074934       2.71701354       0.00000000
