10
Lattice="16.28999089631971 0.0 0.0 0.0 16.28999089631971 0.0 0.0 0.0 34.474598006748145" Properties=species:S:1:pos:R:3:initial_magmoms:R:1 pbc="T T T"
Si      -1.35703845      -1.35702216      -1.35733463       0.00000000
Si      -1.35684297       1.35720135       1.35743806       0.00000000
Si       1.35764118       1.35728280      -1.35698989       0.00000000
Si       1.35767376      -1.35773892       1.35764490       0.00000000
Si      -2.71352304       0.00275301       2.71522086       0.00000000
Si      -2.71474968       2.71461447       0.00024132       0.00000000
Si       2.71521720       2.71454931      -0.00017237       0.00000000
Si       0.00250866      -2.71507059       2.71473821       0.00000000
Si      -2.71505267      -2.71511946      -0.00031027       0.00000000
Si       2.71645524      -0.00045612       2.71449689       0.00000000
