10
Lattice="16.28999089631971 0.0 0.0 0.0 16.28999089631971 0.0 0.0 0.0 34.474598006748145" Properties=species:S:1:pos:R:3:initial_magmoms:R:1 pbc="T T T"
Si       1.26526059       1.50930108      -1.32534219       0.00000000
Si      -1.36420605      -1.33418358      -1.47168694       0.00000000
Si       1.13062374      -1.25910297       1.75313771       0.00000000
Si      -1.90555533       1.24040205       1.02220688       0.00000000
Si      -0.87273675      -1.02495051       3.02259654       0.00000000
Si       1.51638723       3.43308492       0.39887132       0.00000000
Si      -2.84156244      -1.77238458       1.86221540       0.00000000
Si      -2.42289315      -3.04290684      -0.24521795       0.00000000
Si       2.54964564      -0.08615781      -2.97167753       0.00000000
Si      -0.13302414       2.58549993      -2.98591555       0.00000000
