10
Lattice="16.28999089631971 0.0 0.0 0.0 16.28999089631971 0.0 0.0 0.0 34.474598006748145" Properties=species:S:1:pos:R:3:initial_magmoms:R:1 pbc="T T T"
Si       0.38032263       2.03701563       1.11439200       0.00000000
Si      -1.86988023      -0.04228884      -1.55252991       0.00000000
Si       1.49069790       0.37659222      -1.88810584       0.00000000
Si      -0.80278749      -1.92420738       1.36026497       0.00000000
Si       2.45565234      -0.37709721       0.94550085       0.00000000
Si       1.98742887      -1.82755881      -2.56118827       0.00000000
Si       2.10587346       3.07143063      -0.12528076       0.00000000
Si      -3.72975840      -0.20546577      -0.18630083       0.00000000
Si       0.44733969       2.12472099      -3.16873445       0.00000000
Si      -1.67246172      -2.12042043      -2.87763078       0.00000000
