10
Lattice="16.28999089631971 0.0 0.0 0.0 16.28999089631971 0.0 0.0 0.0 34.474598006748145" Properties=species:S:1:pos:R:3:initial_magmoms:R:1 pbc="T T T"
Si      -1.85987817      -0.16317693       1.36622908       0.00000000
Si      -0.01762578       1.66842180      -1.60693086       0.00000000
Si       1.86988023       0.04228884       1.55252991       0.00000000
Si       0.19741851      -2.07813159      -1.32510086       0.00000000
Si       3.36057813       0.41888106      -0.33557592       0.00000000
Si      -0.83540007       0.18722097      -3.32549053       0.00000000
Si       2.31721992       2.16700983      -1.61620453       0.00000000
Si       1.06709274      -1.88191854       2.91279489       0.00000000
Si      -1.33449309      -1.66959468       3.10337057       0.00000000
Si      -2.45755827       1.94222412       2.17848554       0.00000000
