10
Lattice="16.28999089631971 0.0 0.0 0.0 16.28999089631971 0.0 0.0 0.0 34.474598006748145" Properties=species:S:1:pos:R:3:initial_magmoms:R:1 pbc="T T T"
Si      -2.15176239      -0.75150657       0.53652847       0.00000000
Si       1.09700118      -2.03416814      -0.40817947       0.00000000
Si      -0.22680567       0.91411335      -2.18534599       0.00000000
Si       0.84657501       1.70759925       1.65440241       0.00000000
Si       0.83427606       2.96152200      -1.82122508       0.00000000
Si      -3.30531335       1.31114952       0.58551690       0.00000000
Si       0.32529501       3.59624556       0.37577333       0.00000000
Si      -2.05751008      -1.36246302       2.83429618       0.00000000
Si       2.08733544      -2.72305106       1.61079202       0.00000000
Si      -0.60457077      -3.45047354      -1.52657053       0.00000000
