10
Lattice="16.28999089631971 0.0 0.0 0.0 16.28999089631971 0.0 0.0 0.0 34.474598006748145" Properties=species:S:1:pos:R:3:initial_magmoms:R:1 pbc="T T T"
Si      -1.09700118       2.03416814       0.40817947       0.00000000
Si       0.99033426      -0.68888292       2.01897149       0.00000000
Si       1.99119186       0.17662921      -1.28197312       0.00000000
Si      -1.70157195      -1.41630540      -1.11839106       0.00000000
Si       2.44121940      -2.17514247      -1.54211858       0.00000000
Si      -3.24876357       1.28266157       0.94470794       0.00000000
Si      -1.32380685       2.94828149      -1.77716652       0.00000000
Si      -0.53669034      -2.41693494       2.74480008       0.00000000
Si      -1.94514003      -0.13240838      -3.15197978       0.00000000
Si       1.11184137       1.03114397       3.59401333       0.00000000
