10
Lattice="16.28999089631971 0.0 0.0 0.0 16.28999089631971 0.0 0.0 0.0 34.474598006748145" Properties=species:S:1:pos:R:3:initial_magmoms:R:1 pbc="T T T"
Si      -1.35408996       1.35569031      -1.36171291       0.00000000
Si      -1.35374787      -1.34659656       1.37426167       0.00000000
Si       1.36202319      -1.35762489      -1.35943758       0.00000000
Si       1.35791811       1.36057242       1.38070842       0.00000000
Si       0.04523733      -2.72059290       2.66030279       0.00000000
Si      -2.71199178       2.71370942      -0.00148241       0.00000000
Si      -2.71155195      -0.00127780      -2.71777198       0.00000000
Si       0.00324171       2.71374200      -2.71790988       0.00000000
Si      -2.71402803      -2.71769328      -0.00368878       0.00000000
Si       2.72205900       2.71217816      -0.00168926       0.00000000
