10
Lattice="16.28999089631971 0.0 0.0 0.0 16.28999089631971 0.0 0.0 0.0 34.474598006748145" Properties=species:S:1:pos:R:3:initial_magmoms:R:1 pbc="T T T"
Si       0.37131426      -1.11143412       1.96960383       0.00000000
Si      -0.62527536       2.28373324       0.48998774       0.00000000
Si      -1.98285138      -1.57193613      -0.30599670       0.00000000
Si       2.02870773      -0.80617581      -1.57318021       0.00000000
Si      -1.08703170       2.82956390      -1.76199769       0.00000000
Si       1.16822106      -3.21818724       1.28893699       0.00000000
Si      -1.94777901       0.86052171      -2.98912169       0.00000000
Si      -0.71601066      -3.14525691      -1.85228671       0.00000000
Si      -2.59542054       1.93277659       1.90748057       0.00000000
Si       0.78683958      -1.98353556      -3.14346455       0.00000000
