10
Lattice="16.28999089631971 0.0 0.0 0.0 16.28999089631971 0.0 0.0 0.0 34.474598006748145" Properties=species:S:1:pos:R:3:initial_magmoms:R:1 pbc="T T T"
Si      -1.50285024      -1.16172135       1.29117784       0.00000000
Si       1.33613838      -1.37075463      -1.29428056       0.00000000
Si       1.24186815       1.17735975       1.57028434       0.00000000
Si      -1.39898520       1.37399634      -1.28604112       0.00000000
Si       2.98554975      -0.52316964       2.09050632       0.00000000
Si       2.73442311      -2.44695348       0.36629281       0.00000000
Si       2.54726730       2.70255987       0.25931807       0.00000000
Si       2.67617007      -0.00102627      -2.66047516       0.00000000
Si      -0.78683958       1.98353556       3.14346455       0.00000000
Si      -0.03979647      -2.71329498      -2.66226784       0.00000000
