10
Lattice="16.28999089631971 0.0 0.0 0.0 16.28999089631971 0.0 0.0 0.0 34.474598006748145" Properties=species:S:1:pos:R:3:initial_magmoms:R:1 pbc="T T T"
Si      -1.24186815      -1.17735975      -1.57028434       0.00000000
Si       1.30539915       1.52520012      -1.31096627       0.00000000
Si       1.74368160      -1.70052939       0.52022197       0.00000000
Si      -2.02870773       0.80617581       1.57318021       0.00000000
Si      -2.74471839      -2.33908110      -0.27910650       0.00000000
Si       1.47435903      -1.91342340       2.85284353       0.00000000
Si       0.09427023      -2.54811438      -2.86456490       0.00000000
Si      -0.86048667      -2.41201143       2.86211720       0.00000000
Si       2.56029930       2.87108385       0.35095160       0.00000000
Si      -2.64085335       0.19663659      -2.85632546       0.00000000
