10
Lattice="16.28999089631971 0.0 0.0 0.0 16.28999089631971 0.0 0.0 0.0 34.474598006748145" Properties=species:S:1:pos:R:3:initial_magmoms:R:1 pbc="T T T"
Si      -0.25633944       1.98690012      -1.41566568       0.00000000
Si       2.07982575      -1.03430097      -1.03161845       0.00000000
Si      -2.00202471      -1.62303786       0.23242787       0.00000000
Si       0.60092181       0.62235945       2.44287138       0.00000000
Si       1.26387594       1.57232613      -3.11747069       0.00000000
Si       0.69175485       3.74203196      -0.10249304       0.00000000
Si       3.05828460      -2.25173412       0.80153485       0.00000000
Si       2.60211573      -1.01100627       2.75765911       0.00000000
Si       1.27578393      -2.84990292      -2.39167657       0.00000000
Si      -2.55961512       2.23980888      -1.97956700       0.00000000
