10
Lattice="16.28999089631971 0.0 0.0 0.0 16.28999089631971 0.0 0.0 0.0 34.474598006748145" Properties=species:S:1:pos:R:3:initial_magmoms:R:1 pbc="T T T"
Si      -1.36125756      -1.35018688       1.37739196       0.00000000
Si       1.35922131       1.36684503       1.37870200       0.00000000
Si       1.41214752      -1.37527510      -1.37739196       0.00000000
Si      -1.40621796       1.31447268      -1.46273733       0.00000000
Si       2.67659361       0.08693973      -2.72231026       0.00000000
Si      -2.72085354      -2.68731015      -0.00633299       0.00000000
Si       2.68799661       2.72748357       0.01290385       0.00000000
Si      -2.69974170       2.72616408       0.00316822       0.00000000
Si       2.73051351      -2.70589022       0.02451490       0.00000000
Si       0.00112401      -2.70809153       2.73662270       0.00000000
