10
Lattice="16.28999089631971 0.0 0.0 0.0 16.28999089631971 0.0 0.0 0.0 34.474598006748145" Properties=species:S:1:pos:R:3:initial_magmoms:R:1 pbc="T T T"
Si       1.35653346       1.35632452       1.35764490       0.00000000
Si      -1.35856971      -1.35886077       1.35754148       0.00000000
Si       1.35571896      -1.36179297      -1.35926521       0.00000000
Si      -1.36238157       1.35790465      -1.35923074       0.00000000
Si       2.71414206       2.71319030       0.00103424       0.00000000
Si      -2.71379997       2.71444463       0.00117214       0.00000000
Si      -0.00188964       2.71348352       2.71515191       0.00000000
Si       2.71451673      -0.00144233       2.71508296       0.00000000
Si      -2.71515204      -0.00079173       2.71446241       0.00000000
Si       2.71391400      -2.71702323       0.00075844       0.00000000
