10
Lattice="16.28999089631971 0.0 0.0 0.0 16.28999089631971 0.0 0.0 0.0 34.474598006748145" Properties=species:S:1:pos:R:3:initial_magmoms:R:1 pbc="T T T"
Si      -1.05510330       1.85393395       1.00003970       0.00000000
Si       2.20364604       0.66486658       0.55183520       0.00000000
Si      -0.93825513      -1.77564814       1.31837831       0.00000000
Si      -0.49669839       0.10186626      -2.37612852       0.00000000
Si      -2.75895585      -1.97243134      -0.19440237       0.00000000
Si       0.00589698       3.58168393      -0.14279386       0.00000000
Si      -2.81846322      -0.63093355      -2.13332379       0.00000000
Si       2.28253851      -0.36915176       2.74962652       0.00000000
Si       0.76528791      -3.50535292      -0.93829566       0.00000000
Si       3.60939159      -0.20319332      -1.10491148       0.00000000
