10
Lattice="16.28999089631971 0.0 0.0 0.0 16.28999089631971 0.0 0.0 0.0 34.474598006748145" Properties=species:S:1:pos:R:3:initial_magmoms:R:1 pbc="T T T"
Si      -1.35739683      -1.35656604      -1.35612802       0.00000000
Si       1.35755973       1.35793440      -1.35599012       0.00000000
Si       1.35886293      -1.35573525       1.35950653       0.00000000
Si      -1.36047564       1.35692442       1.35981680       0.00000000
Si       2.70106119       0.01765836       2.71270421       0.00000000
Si       0.00039096      -2.71379997      -2.71315238       0.00000000
Si      -2.71454931       0.00047241      -2.71325580       0.00000000
Si       2.71370223      -2.71516833       0.00162031       0.00000000
Si       2.71531494       0.00040725      -2.71373845       0.00000000
Si      -2.71507059      -2.71415835       0.00103424       0.00000000
