10
Lattice="16.28999089631971 0.0 0.0 0.0 16.28999089631971 0.0 0.0 0.0 34.474598006748145" Properties=species:S:1:pos:R:3:initial_magmoms:R:1 pbc="T T T"
Si      -1.34651511      -1.34610786      -1.38505222       0.00000000
Si       1.36658439       1.37081979      -1.38587961       0.00000000
Si      -1.31334867       1.46841318       1.35564538       0.00000000
Si       1.15799094      -1.26382707       1.75937762       0.00000000
Si       2.15891370       0.63825849       2.91193302       0.00000000
Si       0.49132269       2.42536923       2.72821779       0.00000000
Si       2.70301599      -2.69135724       0.01079056       0.00000000
Si      -2.71065600      -2.69771359      -0.00265455       0.00000000
Si       0.00920385      -2.70293454      -2.74642039       0.00000000
Si      -2.70734913       0.01239669      -2.74435191       0.00000000
