10
Lattice="16.28999089631971 0.0 0.0 0.0 16.28999089631971 0.0 0.0 0.0 34.474598006748145" Properties=species:S:1:pos:R:3:initial_magmoms:R:1 pbc="T T T"
Si      -0.17148483       1.39753539      -1.90613606       0.00000000
Si      -1.37761272       1.03387743       1.65902201       0.00000000
Si       2.22602850      -0.22452507       0.87537948       0.00000000
Si      -1.26410400      -2.04410178      -0.23808171       0.00000000
Si      -0.96399333      -2.69866656       1.95684823       0.00000000
Si      -1.97371269      -0.86683977       2.93399678       0.00000000
Si      -0.20686671       2.91670821       2.45328271       0.00000000
Si      -1.55576016       0.41127363      -3.49862206       0.00000000
Si       3.18625884       2.19294351       0.50650108       0.00000000
Si       2.39050863       0.12256596       3.20382961       0.00000000
