10
Lattice="16.28999089631971 0.0 0.0 0.0 16.28999089631971 0.0 0.0 0.0 34.474598006748145" Properties=species:S:1:pos:R:3:initial_magmoms:R:1 pbc="T T T"
Si      -0.76028688       0.28478178       2.16080006       0.00000000
Si      -0.59935797       2.28700197      -0.55507581       0.00000000
Si      -1.86380569      -1.54127835      -0.46861347       0.00000000
Si       2.40510447      -0.26995788      -0.71458987       0.00000000
Si       1.45701018      -2.02508972      -2.02776251       0.00000000
Si      -0.84626550      -1.77218095      -2.59166383       0.00000000
Si      -2.83838915       1.88186967       0.40345645       0.00000000
Si       1.14448653       3.53598885       0.64043497       0.00000000
Si       0.73124181       1.41004611       3.56573522       0.00000000
Si       2.44439595       2.30813010       2.21442985       0.00000000
