10
Lattice="16.28999089631971 0.0 0.0 0.0 16.28999089631971 0.0 0.0 0.0 34.474598006748145" Properties=species:S:1:pos:R:3:initial_magmoms:R:1 pbc="T T T"
Si       1.36542780       1.34695494       1.38411451       0.00000000
Si      -1.35096228      -1.36189287       1.38394214       0.00000000
Si       1.44404334      -1.22383512      -1.45263626       0.00000000
Si      -1.31238756       1.49709987      -1.49239239       0.00000000
Si       2.28203352       0.74790648      -2.75478535       0.00000000
Si      -0.00734679      -2.55349008      -2.77874520       0.00000000
Si      -2.70000234      -2.72696229       0.00628817       0.00000000
Si       0.42512013       2.49116454      -2.88933978       0.00000000
Si      -2.71226871       2.72952929       0.00042404       0.00000000
Si       2.72163546      -2.72349252      -0.00417488       0.00000000
