10
Lattice="16.28999089631971 0.0 0.0 0.0 16.28999089631971 0.0 0.0 0.0 34.474598006748145" Properties=species:S:1:pos:R:3:initial_magmoms:R:1 pbc="T T T"
Si       1.35643572      -1.35101115      -1.36091999       0.00000000
Si      -1.34003169      -1.36972836       1.36619461       0.00000000
Si      -1.35938421       1.36399428      -1.35926521       0.00000000
Si       1.35868374       1.37448504       1.38491433       0.00000000
Si      -2.67617007       0.00102627       2.66047516       0.00000000
Si       2.70764235      -2.71120986       0.00320614       0.00000000
Si      -0.00250866      -2.71037907      -2.71704801       0.00000000
Si      -2.71596654      -2.71226871      -0.00179268       0.00000000
Si       2.71241532       0.00495216      -2.71801330       0.00000000
Si       2.70399339       2.72764647      -0.00351641       0.00000000
