10
Lattice="16.28999089631971 0.0 0.0 0.0 16.28999089631971 0.0 0.0 0.0 34.474598006748145" Properties=species:S:1:pos:R:3:initial_magmoms:R:1 pbc="T T T"
Si      -1.34762283       1.34932418      -1.35936863       0.00000000
Si       1.36632375      -1.36575360      -1.35499036       0.00000000
Si      -1.34530965      -1.35316143       1.38843074       0.00000000
Si       1.34618931       1.36090148       1.39784231       0.00000000
Si       0.51383547      -2.25233685       2.66388815       0.00000000
Si       2.29039029      -0.40058739       2.70470610       0.00000000
Si      -2.70334179       2.70615086       0.00199953       0.00000000
Si      -2.70576900      -0.00722844      -2.71494506       0.00000000
Si       0.00749340       2.70704681      -2.71425557       0.00000000
Si      -2.70399339      -2.72764647       0.00351641       0.00000000
