10
Lattice="16.28999089631971 0.0 0.0 0.0 16.28999089631971 0.0 0.0 0.0 34.474598006748145" Properties=species:S:1:pos:R:3:initial_magmoms:R:1 pbc="T T T"
Si      -1.35711821      -1.35674523       1.35712778       0.00000000
Si       1.35752137       1.35817875       1.35671409       0.00000000
Si      -1.35500051       1.35715248      -1.36264372       0.00000000
Si       1.35621328      -1.35653346      -1.36309189       0.00000000
Si      -2.71475939       0.00092853       2.71484164       0.00000000
Si      -2.71469423      -2.71494027       0.00051712       0.00000000
Si       0.00053202      -2.71494027       2.71477269       0.00000000
Si       2.71560075       0.00027693       2.71446241       0.00000000
Si       0.00029577       2.71554300       2.71460031       0.00000000
Si      -2.71357022       2.71696023      -0.00068949       0.00000000
