10
Lattice="16.28999089631971 0.0 0.0 0.0 16.28999089631971 0.0 0.0 0.0 34.474598006748145" Properties=species:S:1:pos:R:3:initial_magmoms:R:1 pbc="T T T"
Si      -0.13307301      -0.04173498       2.32514056       0.00000000
Si       0.22209786      -2.23972839      -0.68963024       0.00000000
Si      -2.33981415      -0.25835940      -0.33209399       0.00000000
Si       1.68129090       1.38895056      -1.05575068       0.00000000
Si      -1.70354304       1.72970478       2.25667397       0.00000000
Si       0.23053608       2.22944940      -2.77658568       0.00000000
Si       3.40491951      -0.23679144      -1.04496012       0.00000000
Si       2.38239621      -2.32207434      -1.62696061       0.00000000
Si      -0.76528791       3.50535292       0.93829566       0.00000000
Si      -0.00226431      -3.58757928       1.29193628       0.00000000
