10
Lattice="16.28999089631971 0.0 0.0 0.0 16.28999089631971 0.0 0.0 0.0 34.474598006748145" Properties=species:S:1:pos:R:3:initial_magmoms:R:1 pbc="T T T"
Si      -1.35752137      -1.35817875      -1.35671409       0.00000000
Si      -1.35722560       1.35736425       1.35788623       0.00000000
Si       1.35801422       1.35809730      -1.35702436       0.00000000
Si       1.35807938      -1.35790182       1.35774833       0.00000000
Si      -2.71439523       2.71485882       0.00055159       0.00000000
Si       2.71269062      -0.00030951      -2.71659984       0.00000000
Si      -2.71463958      -2.71492398       0.00041370       0.00000000
Si      -2.71547037       0.00167787       2.71415214       0.00000000
Si       0.00123478      -2.71554300       2.71453136       0.00000000
Si       2.71505267       2.71511946       0.00031027       0.00000000
