10
Lattice="16.28999089631971 0.0 0.0 0.0 16.28999089631971 0.0 0.0 0.0 34.474598006748145" Properties=species:S:1:pos:R:3:initial_magmoms:R:1 pbc="T T T"
Si       1.35382932      -1.35954222      -1.36598776       0.00000000
Si      -1.36267479       1.35612621      -1.36540169       0.00000000
Si       1.34400645       1.35262386       1.40266875       0.00000000
Si      -1.38108249      -1.34661774       1.38915470       0.00000000
Si       2.71117728      -2.71021982      -0.00727414       0.00000000
Si       2.71194291       2.71308321      -0.00110319       0.00000000
Si      -2.71751409       2.71555929      -0.00751547       0.00000000
Si       2.71147955      -0.00076563      -2.72280527       0.00000000
Si      -2.72727180      -2.70751922      -0.00868760       0.00000000
Si      -0.00381186       2.71510317      -2.72273632       0.00000000
