10
Lattice="16.28999089631971 0.0 0.0 0.0 16.28999089631971 0.0 0.0 0.0 34.474598006748145" Properties=species:S:1:pos:R:3:initial_magmoms:R:1 pbc="T T T"
Si       1.38440143      -1.20172633      -1.56425128       0.00000000
Si       1.78385993       1.12984182       1.32954809       0.00000000
Si      -1.33157718       1.50534261      -1.52346781       0.00000000
Si      -0.37255230      -1.73401511       1.81512307       0.00000000
Si       2.77235342      -2.43736339      -0.11648973       0.00000000
Si       3.63310073      -0.46832121       1.11063427       0.00000000
Si       0.03559365      -2.55750107      -2.93341071       0.00000000
Si       0.24354432      -0.23170896       3.88508252       0.00000000
Si      -2.67558363       0.15271875      -2.92613656       0.00000000
Si       1.21665516      -3.56438951       1.25277312       0.00000000
