10
Lattice="16.28999089631971 0.0 0.0 0.0 16.28999089631971 0.0 0.0 0.0 34.474598006748145" Properties=species:S:1:pos:R:3:initial_magmoms:R:1 pbc="T T T"
Si       0.74577249      -2.10905622      -0.66056814       0.00000000
Si      -1.66420269       0.27109264       1.65840146       0.00000000
Si       1.41336927       1.69297181       0.86214123       0.00000000
Si       0.32979105      -0.24319962      -2.55905084       0.00000000
Si      -2.21703642      -0.29744532      -2.06489168       0.00000000
Si      -3.63574881       0.70052636       0.37732469       0.00000000
Si       2.43178749      -2.68917570       1.05509566       0.00000000
Si      -1.18196982       2.21830802       2.87649312       0.00000000
Si       0.03966615       3.58549514       1.32720382       0.00000000
Si       2.59045209       0.70945328      -2.86111744       0.00000000
