10
Lattice="16.28999089631971 0.0 0.0 0.0 16.28999089631971 0.0 0.0 0.0 34.474598006748145" Properties=species:S:1:pos:R:3:initial_magmoms:R:1 pbc="T T T"
Si       0.92250858      -2.16551508      -0.35370957       0.00000000
Si       1.62405503       1.33658147       1.11821869       0.00000000
Si      -0.74666844       0.53612345      -2.22019983       0.00000000
Si      -1.72897173       0.69102506       1.54005010       0.00000000
Si      -3.34200753       1.06145966      -0.20584794       0.00000000
Si       3.17124665      -1.36238550      -0.94488031       0.00000000
Si       0.47050407       3.39923756       1.16720712       0.00000000
Si      -2.12037156       2.42864678      -1.75513724       0.00000000
Si      -1.77002253      -1.09067089       3.15222110       0.00000000
Si       1.71830734       0.72562502       3.41598640       0.00000000
