10
Lattice="16.28999089631971 0.0 0.0 0.0 16.28999089631971 0.0 0.0 0.0 34.474598006748145" Properties=species:S:1:pos:R:3:initial_magmoms:R:1 pbc="T T T"
Si      -1.35091408      -1.35684297      -1.37746781       0.00000000
Si       1.36367500       1.35997065      -1.37901917       0.00000000
Si       1.39343683      -1.34011314       1.43266167       0.00000000
Si      -1.45372027       1.35518139       1.40521987       0.00000000
Si       2.70206140      -2.68918578      -0.03912869       0.00000000
Si      -2.71885054      -2.71730232       0.02630413       0.00000000
Si      -2.71399612       2.72692971      -0.02926895       0.00000000
Si       2.73190468       2.71314837      -0.00065502       0.00000000
Si      -2.70985846       0.00410508      -2.74307635       0.00000000
Si       0.00684669      -2.71311579      -2.74269713       0.00000000
