10
Lattice="16.28999089631971 0.0 0.0 0.0 16.28999089631971 0.0 0.0 0.0 34.474598006748145" Properties=species:S:1:pos:R:3:initial_magmoms:R:1 pbc="T T T"
Si       1.34770428       1.29332826       1.40129119       0.00000000
Si      -1.26444609      -1.46221483       1.34491829       0.00000000
Si      -1.65107295       0.68434290      -1.68460217       0.00000000
Si       1.97581410      -0.25503624      -1.54218753       0.00000000
Si       0.45662499       0.91955421      -2.97329784       0.00000000
Si      -2.26005831      -3.01261463      -0.17378655       0.00000000
Si       0.01140300       2.64054384       2.73521411       0.00000000
Si      -2.67659361      -0.08693973       2.72231026       0.00000000
Si      -2.74035267      -1.53694847      -2.19062061       0.00000000
Si       2.46860289       2.94648633       0.14641788       0.00000000
