10
Lattice="16.28999089631971 0.0 0.0 0.0 16.28999089631971 0.0 0.0 0.0 34.474598006748145" Properties=species:S:1:pos:R:3:initial_magmoms:R:1 pbc="T T T"
Si       1.20330972      -1.33240797       1.47458280       0.00000000
Si       1.37116188       1.34076474      -1.35623144       0.00000000
Si      -1.34219826      -1.37339361      -1.35319768       0.00000000
Si      -1.28708919       1.46033334       1.40501303       0.00000000
Si       1.96960761       0.67041495       2.77117316       0.00000000
Si      -2.21745996      -0.31884417       2.76089972       0.00000000
Si      -0.54986895      -2.10595491       2.94461496       0.00000000
Si       0.42797088       2.60192025       2.66664612       0.00000000
Si       0.01689273       2.69794980      -2.71098048       0.00000000
Si      -2.70106119      -0.01765836      -2.71270421       0.00000000
