10
Lattice="16.28999089631971 0.0 0.0 0.0 16.28999089631971 0.0 0.0 0.0 34.474598006748145" Properties=species:S:1:pos:R:3:initial_magmoms:R:1 pbc="T T T"
Si       1.84923917       1.07880525       0.89699507       0.00000000
Si      -0.24918161      -2.01686490       1.12790605       0.00000000
Si      -1.81277631       1.40333463       0.40166377       0.00000000
Si       1.94886881      -2.33289090       1.97236180       0.00000000
Si      -2.05036596      -1.49607360       2.64751271       0.00000000
Si      -3.56522193       0.40221639      -0.76244064       0.00000000
Si       3.33739583       1.23145884      -0.89954619       0.00000000
Si      -2.42852202       0.86206680       2.61331389       0.00000000
Si       3.00995054      -0.28548225       2.33648271       0.00000000
Si       1.32777998       3.10533012       1.91199675       0.00000000
