10
Lattice="16.28999089631971 0.0 0.0 0.0 16.28999089631971 0.0 0.0 0.0 34.474598006748145" Properties=species:S:1:pos:R:3:initial_magmoms:R:1 pbc="T T T"
Si       0.16448013       0.34709103       2.32845013       0.00000000
Si      -2.22602850       0.22452507      -0.87537948       0.00000000
Si       0.88066998      -2.33981415      -0.19247179       0.00000000
Si       0.96023034       2.41746858      -0.36887840       0.00000000
Si      -0.23457600       2.62254339       2.12263666       0.00000000
Si      -0.91580751      -2.99457441       1.50743711       0.00000000
Si       2.65399938      -1.76911029      -1.86566286       0.00000000
Si       2.53661364       0.53911755       2.77658568       0.00000000
Si       2.48756445       1.92692781      -2.14759628       0.00000000
Si      -3.60364122       1.25840250       0.78364253       0.00000000
