10
Lattice="16.28999089631971 0.0 0.0 0.0 16.28999089631971 0.0 0.0 0.0 34.474598006748145" Properties=species:S:1:pos:R:3:initial_magmoms:R:1 pbc="T T T"
Si       1.35426915      -1.35718506       1.35474903       0.00000000
Si       1.35594702       1.35764118      -1.35850677       0.00000000
Si      -1.36039419      -1.35767376      -1.35771385       0.00000000
Si      -1.36519974       1.35671265       1.36333321       0.00000000
Si      -0.01689273      -2.69794980       2.71098048       0.00000000
Si       2.70728397       0.00995319       2.71239394       0.00000000
Si       2.71142163      -2.71287144      -0.00141346       0.00000000
Si       2.71153566       2.71559187      -0.00220638       0.00000000
Si       2.71249677       0.00030951      -2.71501401       0.00000000
Si      -0.00263898       2.71521720      -2.71525533       0.00000000
