10
Lattice="16.28999089631971 0.0 0.0 0.0 16.28999089631971 0.0 0.0 0.0 34.474598006748145" Properties=species:S:1:pos:R:3:initial_magmoms:R:1 pbc="T T T"
Si       2.34088833       0.48135321       0.18957592       0.00000000
Si      -2.22389451       0.19000656      -0.87758586       0.00000000
Si      -0.02599884      -2.34890397       0.52701347       0.00000000
Si      -0.21209580       1.09361286       2.14890632       0.00000000
Si       0.37532160       1.43013168      -2.91734554       0.00000000
Si      -3.20026824      -1.61160228       0.21243259       0.00000000
Si       1.33136608      -0.11748348       3.45001285       0.00000000
Si       2.02694745      -0.38196792      -3.07706644       0.00000000
Si       3.11455745      -0.64690848       2.03734646       0.00000000
Si       0.45838431       3.35663595       1.67412189       0.00000000
