10
Lattice="16.28999089631971 0.0 0.0 0.0 16.28999089631971 0.0 0.0 0.0 34.474598006748145" Properties=species:S:1:pos:R:3:initial_magmoms:R:1 pbc="T T T"
Si       1.12865495      -0.96062130      -1.82219037       0.00000000
Si       0.45160767       2.30382954       0.29393059       0.00000000
Si      -2.28325527      -0.51598575      -0.36284535       0.00000000
Si       0.47283354      -0.73347354       2.20823713       0.00000000
Si      -0.89823060       2.81926143       2.20396228       0.00000000
Si      -1.18767132      -2.47604742       2.50644257       0.00000000
Si      -0.98184717       0.82774377       3.51234296       0.00000000
Si      -2.38477455      -1.07712738      -2.67409264       0.00000000
Si      -0.65741553       3.39569937      -1.48168458       0.00000000
Si       0.38641509      -3.16055322      -2.02014362       0.00000000
