10
Lattice="16.28999089631971 0.0 0.0 0.0 16.28999089631971 0.0 0.0 0.0 34.474598006748145" Properties=species:S:1:pos:R:3:initial_magmoms:R:1 pbc="T T T"
Si       0.39905613      -2.27545236       0.20581347       0.00000000
Si      -2.19831921       0.51868989      -0.54473343       0.00000000
Si       0.10151928       0.56114163       2.31124729       0.00000000
Si       1.19480634      -0.20507481      -2.49151506       0.00000000
Si       2.81847951       1.03382856      -1.18827111       0.00000000
Si       0.23457600      -2.62254339      -2.12263666       0.00000000
Si       2.77118964      -2.08342584       0.65394902       0.00000000
Si       3.51342950       0.11650608       0.85190227       0.00000000
Si      -2.92385952       1.86507468       1.29448740       0.00000000
Si      -1.97395704       1.86654078      -2.52629995       0.00000000
