10
Lattice="16.28999089631971 0.0 0.0 0.0 16.28999089631971 0.0 0.0 0.0 34.474598006748145" Properties=species:S:1:pos:R:3:initial_magmoms:R:1 pbc="T T T"
Si       2.13600996      -0.58705902       0.70731572       0.00000000
Si      -0.52128000       1.88864631      -1.27862908       0.00000000
Si      -0.75642615       0.80019738       2.16593678       0.00000000
Si      -0.84657501      -1.70759925      -1.65440241       0.00000000
Si      -2.87789403       1.60774155      -0.55941961       0.00000000
Si       1.36226754      -2.71062342       1.53143145       0.00000000
Si      -3.04979425       0.96236433       1.76840997       0.00000000
Si      -0.01229895       1.25392275      -3.47562749       0.00000000
Si       3.73518297      -0.25510140      -0.99769542       0.00000000
Si       0.06071283       3.10979358       2.49185981       0.00000000
