10
Lattice="16.28999089631971 0.0 0.0 0.0 16.28999089631971 0.0 0.0 0.0 34.474598006748145" Properties=species:S:1:pos:R:3:initial_magmoms:R:1 pbc="T T T"
Si       1.33418099      -1.86434163      -0.41755656       0.00000000
Si       1.21097646       0.90826524       1.77678730       0.00000000
Si       0.11701695       1.58768856      -1.72190371       0.00000000
Si      -2.01469833      -0.87641829       0.90568267       0.00000000
Si      -0.53374185      -0.09282042      -3.39543953       0.00000000
Si      -0.99820233      -1.43703864       3.00577293       0.00000000
Si       1.38643117      -1.09952613       3.04693562       0.00000000
Si      -0.31045482       2.52853203       2.69153679       0.00000000
Si       1.67590610      -2.94080112       1.60834432       0.00000000
Si       3.44589605      -1.20244635      -1.17979035       0.00000000
