10
Lattice="16.28999089631971 0.0 0.0 0.0 16.28999089631971 0.0 0.0 0.0 34.474598006748145" Properties=species:S:1:pos:R:3:initial_magmoms:R:1 pbc="T T T"
Si      -0.38628707      -2.10072582      -0.99386874       0.00000000
Si      -0.84436187       1.23041628      -1.82474149       0.00000000
Si       2.35192251       0.31143222       0.40907581       0.00000000
Si      -1.36914422      -0.09721872       1.99587349       0.00000000
Si       3.23197347      -1.10177415      -1.23305364       0.00000000
Si       2.48312217      -0.70600860       2.55915426       0.00000000
Si       1.82969769      -3.00543984      -0.99521325       0.00000000
Si       0.37511798       0.28100250      -3.62969455       0.00000000
Si       0.24409099      -1.11114090       3.51768652       0.00000000
Si      -2.26037012      -2.93024520       0.19057568       0.00000000
