10
Lattice="16.28999089631971 0.0 0.0 0.0 16.28999089631971 0.0 0.0 0.0 34.474598006748145" Properties=species:S:1:pos:R:3:initial_magmoms:R:1 pbc="T T T"
Si       0.77366911      -1.12826169       1.84777054       0.00000000
Si       1.43709565      -1.05368607      -1.53829190       0.00000000
Si      -2.34088833      -0.48135321      -0.18957592       0.00000000
Si       0.19387706       2.37276882       0.38256483       0.00000000
Si      -2.55298413       0.61225965       1.95933040       0.00000000
Si      -0.31394088      -0.86332113      -3.26664236       0.00000000
Si      -1.00952225      -0.59883669       3.26043693       0.00000000
Si       1.29512830      -3.15478656       0.83276885       0.00000000
Si      -2.36688717      -2.83025718       0.33743755       0.00000000
Si      -1.88250402       2.87528274       1.48454597       0.00000000
