10
Lattice="16.28999089631971 0.0 0.0 0.0 16.28999089631971 0.0 0.0 0.0 34.474598006748145" Properties=species:S:1:pos:R:3:initial_magmoms:R:1 pbc="T T T"
Si       0.99494107       1.70259822       1.20199201       0.00000000
Si       1.78319137      -0.52942500      -1.41266639       0.00000000
Si      -0.84066241      -1.87457175       1.13662813       0.00000000
Si      -1.54346188       1.21109634      -1.30110653       0.00000000
Si       1.00952225       0.59883669      -3.26043693       0.00000000
Si      -1.97311063      -2.77268832      -0.71134925       0.00000000
Si       1.33666618       0.62613873       3.22789289       0.00000000
Si      -1.33136608       0.11748348      -3.45001285       0.00000000
Si       3.70433623       0.25909245      -0.37249824       0.00000000
Si      -3.66339361       0.71454456      -0.40514570       0.00000000
