10
Lattice="16.28999089631971 0.0 0.0 0.0 16.28999089631971 0.0 0.0 0.0 34.474598006748145" Properties=species:S:1:pos:R:3:initial_magmoms:R:1 pbc="T T T"
Si      -0.45667386      -2.29645017      -0.30334216       0.00000000
Si      -0.57627504       1.12241358      -2.00880147       0.00000000
Si       2.39518386       0.13455540       0.34005762       0.00000000
Si      -0.99914715       0.73603107       2.10526145       0.00000000
Si       2.56720626       2.30555628       1.17110275       0.00000000
Si       0.67702869      -0.17945064      -3.61866268       0.00000000
Si       0.54726255       2.73342942       2.44945603       0.00000000
Si      -0.32547420      -3.31389099       1.84673630       0.00000000
Si      -2.91071838       0.82246581      -2.33920621       0.00000000
Si      -2.80859637      -2.60788239      -0.71241797       0.00000000
