10
Lattice="16.28999089631971 0.0 0.0 0.0 16.28999089631971 0.0 0.0 0.0 34.474598006748145" Properties=species:S:1:pos:R:3:initial_magmoms:R:1 pbc="T T T"
Si       2.21302908       0.73554237      -0.31771807       0.00000000
Si      -0.79180803       1.24159122       1.85407939       0.00000000
Si      -1.32170707       0.77411709      -1.86586971       0.00000000
Si      -0.08382834      -2.45579895       0.05681417       0.00000000
Si      -0.84690081       3.39143139       0.70400616       0.00000000
Si       2.57307066      -0.21782988      -2.52619653       0.00000000
Si      -1.03223214      -1.06715790      -3.30446101       0.00000000
Si      -3.09531896       0.50870412       1.84253039       0.00000000
Si      -2.41827168      -2.75574672      -0.27359056       0.00000000
Si       1.12581819      -2.02828419      -3.14025841       0.00000000
