10
Lattice="16.28999089631971 0.0 0.0 0.0 16.28999089631971 0.0 0.0 0.0 34.474598006748145" Properties=species:S:1:pos:R:3:initial_magmoms:R:1 pbc="T T T"
Si      -1.35802315      -1.35650088       1.35599012       0.00000000
Si       1.35763618      -1.35690813      -1.35681751       0.00000000
Si      -1.35707833       1.35777150      -1.35716226       0.00000000
Si       1.35772578       1.35692442       1.35750700       0.00000000
Si      -2.70900172      -0.00548973       2.71108390       0.00000000
Si       2.71215457      -0.00024435       2.71480716       0.00000000
Si       0.00048119      -2.71393029      -2.71363502       0.00000000
Si      -2.71361179      -2.71445157      -0.00031027       0.00000000
Si      -2.71511047       0.00001629      -2.71384187       0.00000000
Si      -0.00194082      -2.71389771       2.71542770       0.00000000
