10
Lattice="16.28999089631971 0.0 0.0 0.0 16.28999089631971 0.0 0.0 0.0 34.474598006748145" Properties=species:S:1:pos:R:3:initial_magmoms:R:1 pbc="T T T"
Si       0.80585001      -2.10004164      -0.71269376       0.00000000
Si      -0.24356808       1.28389702      -2.03358872       0.00000000
Si      -2.24873806      -0.80312958       0.59117074       0.00000000
Si       1.70157195       1.41630540       1.11839106       0.00000000
Si      -3.17124665       1.36238550       0.94488031       0.00000000
Si      -1.54719162       2.69896697       2.06309900       0.00000000
Si      -0.82311578      -2.98615248      -2.18434623       0.00000000
Si       2.72316672      -1.76031369      -1.97146546       0.00000000
Si       0.60457077       3.45047354       1.52657053       0.00000000
Si       1.08014103      -3.59326449       1.13328409       0.00000000
