10
Lattice="16.28999089631971 0.0 0.0 0.0 16.28999089631971 0.0 0.0 0.0 34.474598006748145" Properties=species:S:1:pos:R:3:initial_magmoms:R:1 pbc="T T T"
Si      -0.13361058       0.61406784       2.24512498       0.00000000
Si       1.20270699      -1.83824505      -0.88834194       0.00000000
Si      -2.31966016      -0.48192336       0.22667061       0.00000000
Si       1.52702460       1.72805202      -0.72582859       0.00000000
Si       1.99418922      -0.25796844       2.69619087       0.00000000
Si      -0.55508175       2.90308067       1.70239108       0.00000000
Si      -2.14420546      -2.48971473       1.49681893       0.00000000
Si       0.53669034       2.41693494      -2.74480008       0.00000000
Si      -0.08474058      -2.59263495      -2.72990704       0.00000000
Si       2.96100072      -0.84450618      -2.18486334       0.00000000
