10
Lattice="16.290000149 0.0 0.0 0.0 16.290000149 0.0 0.0 0.0 29.1751946751" Properties=species:S:1:pos:R:3:initial_magmoms:R:1 pbc="T T T"
Si      -1.36085032       1.37111302       1.26182717       0.00000000
Si      -1.42073236      -1.31048164      -1.31294211       0.00000000
Si       1.33677370       1.44783892      -1.25616718       0.00000000
Si       1.29801979      -1.30189681       1.46091870       0.00000000
Si      -2.77562055       0.04523733       2.50095604       0.00000000
Si       2.68071500       0.08154774      -2.60610344       0.00000000
Si      -0.04294044      -2.65958687      -2.63291544       0.00000000
Si       2.68091048      -2.64648971       0.12542416       0.00000000
Si      -0.05203026       2.78917383      -2.60330262       0.00000000
Si      -2.78466150       0.08254143      -2.61719001       0.00000000
