10
Lattice="16.290000149 0.0 0.0 0.0 16.290000149 0.0 0.0 0.0 29.1751946751" Properties=species:S:1:pos:R:3:initial_magmoms:R:1 pbc="T T T"
Si       1.58591296      -0.16158051      -1.70794507       0.00000000
Si      -0.39543975       2.29323292      -0.36089716       0.00000000
Si       0.24260697      -0.53634825       2.30387322       0.00000000
Si      -1.90086383      -1.29699352      -0.64462593       0.00000000
H        1.32835177      -2.23117616       1.48688462       0.00000000
H       -2.77716810      -0.45077688      -1.54838593       0.00000000
H        2.08290458       1.93334772       1.49674584       0.00000000
Si      -1.50649921       1.01750599       2.71717632       0.00000000
Si      -2.29355057       2.26773907       0.98518797       0.00000000
Si       0.02334357      -0.94014478      -3.29825576       0.00000000
