10
Lattice="16.290000149 0.0 0.0 0.0 16.290000149 0.0 0.0 0.0 29.1751946751" Properties=species:S:1:pos:R:3:initial_magmoms:R:1 pbc="T T T"
Si      -0.68452210       2.04978375       0.76894143       0.00000000
Si       2.05631930      -0.60983245       0.89080622       0.00000000
Si      -1.24046722      -1.78846608       0.84383416       0.00000000
Si      -0.63604306      -0.68053756      -2.14592309       0.00000000
Si      -0.67960252      -2.82519427      -1.16438202       0.00000000
H        0.69250420       2.30819202      -2.13644116       0.00000000
Si      -1.29055897       1.53075177       2.95282145       0.00000000
Si      -3.52328268       0.78339914      -0.77465977       0.00000000
Si       1.53183016      -1.86253672       2.82205823       0.00000000
Si       1.08186778       3.53293939       0.43605246       0.00000000
