10
Lattice="16.290000149 0.0 0.0 0.0 16.290000149 0.0 0.0 0.0 29.1751946751" Properties=species:S:1:pos:R:3:initial_magmoms:R:1 pbc="T T T"
Si       1.32787936       1.38062638      -1.37529825       0.00000000
Si       1.35009892      -1.36695907       1.37219985       0.00000000
Si      -1.36511830       1.35176050       1.38660364       0.00000000
Si      -1.38811978      -1.37404522      -1.34562708       0.00000000
Si       2.52982073      -0.08775423      -2.80721681       0.00000000
Si      -2.63801891      -2.75387340       0.07871468       0.00000000
Si      -2.83287990       0.05424570      -2.56118239       0.00000000
Si       2.72090243       0.03544704       2.68906894       0.00000000
Si      -0.06133185       2.81649216      -2.59855582       0.00000000
Si       2.63503784       2.81981532       0.00116117       0.00000000
