10
Lattice="16.290000149 0.0 0.0 0.0 16.290000149 0.0 0.0 0.0 29.1751946751" Properties=species:S:1:pos:R:3:initial_magmoms:R:1 pbc="T T T"
Si       1.12936942      -0.06128298      -1.00575649       0.00000000
H        0.66727099       0.93113641       1.62012774       0.00000000
H       -0.92421316       1.77332942       0.43777380       0.00000000
Si      -2.28017648       1.19531134       0.16518995       0.00000000
Si      -2.72930807      -1.01413396       0.77471812       0.00000000
Si       0.13277979       0.67246750       3.00557020       0.00000000
Si       1.35294967      -2.19600605      -1.91832740       0.00000000
Si       3.19070604       0.63431632      -0.10322184       0.00000000
Si       0.90205876       1.44954937      -2.84516498       0.00000000
Si      -1.66369772      -0.92406655       2.88087542       0.00000000
