10
Lattice="16.290000149 0.0 0.0 0.0 16.290000149 0.0 0.0 0.0 29.1751946751" Properties=species:S:1:pos:R:3:initial_magmoms:R:1 pbc="T T T"
Si      -1.33325506       1.36516229      -1.37190518       0.00000000
Si       1.37118307       1.37233966       1.32928022       0.00000000
Si       1.36966973      -1.33998283      -1.37981166       0.00000000
Si      -1.37919286      -1.32688567       1.38865174       0.00000000
Si      -2.63769311      -2.69526197      -0.06631522       0.00000000
Si       0.06056767      -2.67550220       2.67524865       0.00000000
Si      -0.02415807       2.70932024       2.67869132       0.00000000
Si      -2.70324407       2.70555725      -0.00641854       0.00000000
Si      -2.66639609       0.01040931      -2.75437178       0.00000000
Si       2.77770567       0.03494205       2.66206146       0.00000000
