10
Lattice="16.290000149 0.0 0.0 0.0 16.290000149 0.0 0.0 0.0 29.1751946751" Properties=species:S:1:pos:R:3:initial_magmoms:R:1 pbc="T T T"
Si       0.34397964      -0.88379767      -2.13492405       0.00000000
Si      -1.82254151       1.45707535       0.16256418       0.00000000
Si       1.62188128       1.68718790       0.07066232       0.00000000
Si       0.22731066      -1.51083235       1.83940850       0.00000000
H       -0.90205876      -1.44954937       2.84516498       0.00000000
Si       1.06101658       2.72391608       2.07887850       0.00000000
Si       2.28864728      -0.81523306       2.74194315       0.00000000
Si       1.39996261       0.87884551      -3.31584840       0.00000000
Si      -3.65282076       0.16415433       0.79884601       0.00000000
H       -1.82627192       0.32378004       3.28293878       0.00000000
