10
Lattice="16.290000149 0.0 0.0 0.0 16.290000149 0.0 0.0 0.0 29.1751946751" Properties=species:S:1:pos:R:3:initial_magmoms:R:1 pbc="T T T"
Si       1.42219032       1.43974279       1.16309831       0.00000000
Si       1.43525001      -1.24515874      -1.36855003       0.00000000
Si      -1.29243232       1.41477022      -1.35647150       0.00000000
Si      -1.63797580      -1.05604813       1.43311474       0.00000000
H        0.25344308      -2.69348636       1.69151944       0.00000000
H       -1.09599121       1.41032305       2.80464064       0.00000000
Si      -0.06309117       2.51753807       2.58874420       0.00000000
Si      -2.62347194       2.48751560       0.26604860       0.00000000
Si      -3.31441230       0.62454232       1.68454657       0.00000000
Si       0.07687707      -2.65766465      -2.67965411       0.00000000
