10
Lattice="16.290000149 0.0 0.0 0.0 16.290000149 0.0 0.0 0.0 29.1751946751" Properties=species:S:1:pos:R:3:initial_magmoms:R:1 pbc="T T T"
Si      -1.31881886       0.28124685       1.90864124       0.00000000
Si       2.21236121      -0.07630236       0.81171227       0.00000000
Si      -1.29813545      -0.15213231      -2.02006130       0.00000000
Si      -0.54765352       2.38674566       0.73609016       0.00000000
Si      -0.49513455      -1.97791553       1.66018528       0.00000000
H        2.05684058       0.72013204       2.08637652       0.00000000
H       -2.43473274       0.81430453      -1.72825101       0.00000000
H        0.21908421      -1.62587233      -2.65298798       0.00000000
H        0.76911607      -1.93943855       2.50399026       0.00000000
H        0.65469511       2.75589336       1.61855227       0.00000000
