10
Lattice="16.290000149 0.0 0.0 0.0 16.290000149 0.0 0.0 0.0 29.1751946751" Properties=species:S:1:pos:R:3:initial_magmoms:R:1 pbc="T T T"
Si       1.35543227      -1.41232672       1.31177510       0.00000000
Si      -1.46594868       1.26612397       1.34745637       0.00000000
Si      -1.11216229      -1.69319891      -1.25567120       0.00000000
Si       1.18552757       1.69339439      -1.19355721       0.00000000
Si       2.37867234      -2.64134207      -0.53297246       0.00000000
Si      -2.77864397      -2.48904686       0.19162268       0.00000000
Si       2.53155399       0.04748535       2.76486318       0.00000000
Si      -2.86867880       2.42958836      -0.11684665       0.00000000
Si      -0.13139677      -2.60159447       2.76088660       0.00000000
Si       0.32854324      -3.61186770      -1.28537155       0.00000000
