10
Lattice="16.290000149 0.0 0.0 0.0 16.290000149 0.0 0.0 0.0 29.1751946751" Properties=species:S:1:pos:R:3:initial_magmoms:R:1 pbc="T T T"
Si      -1.48724443       1.79993099      -0.11576717       0.00000000
Si       1.12488967      -1.11835738      -1.75194126       0.00000000
Si      -1.65806138      -1.52598205       0.73255996       0.00000000
Si       1.86197960       0.84196495       1.25205348       0.00000000
H       -0.75061063       0.55467451       2.50013913       0.00000000
H       -1.40151016       0.97743259       2.45882706       0.00000000
Si       2.46840743      -2.53247600      -0.38067794       0.00000000
H        1.36686133       3.21694923      -0.96502791       0.00000000
H        0.79677649       3.33772329       1.36884178       0.00000000
Si       2.55291995       2.70493823      -0.16644449       0.00000000
