10
Lattice="16.290000149 0.0 0.0 0.0 16.290000149 0.0 0.0 0.0 29.1751946751" Properties=species:S:1:pos:R:3:initial_magmoms:R:1 pbc="T T T"
Si      -1.43369595       1.21246471      -1.38199980       0.00000000
Si       1.14259690      -1.42892623      -1.46246498       0.00000000
Si      -1.47890558      -1.20229975       1.38625937       0.00000000
Si       1.50400684       1.34130232       1.30217646       0.00000000
H        0.03831408      -2.67603977       0.75333270       0.00000000
H       -2.61550288      -0.23586291       1.67806967       0.00000000
H        2.05206761      -2.32767812      -0.65725879       0.00000000
Si      -0.18077013      -1.05016744       3.40632068       0.00000000
Si      -0.06608853       2.63987597      -2.68125874       0.00000000
Si      -2.86894596       2.45762345      -0.01344976       0.00000000
