10
Lattice="16.290000149 0.0 0.0 0.0 16.290000149 0.0 0.0 0.0 29.1751946751" Properties=species:S:1:pos:R:3:initial_magmoms:R:1 pbc="T T T"
Si       1.54474813      -1.26081343      -1.20175544       0.00000000
Si       1.39497787       1.31766553       1.36971996       0.00000000
Si      -1.21777525      -1.43654995       1.44102122       0.00000000
Si      -1.47372373       1.20951622      -1.45056150       0.00000000
H        0.37642932      -1.83128924      -2.24071330       0.00000000
Si      -2.67566510       2.67789683      -0.01864295       0.00000000
Si       2.85744342       2.49435740      -0.04592176       0.00000000
Si      -2.65344554      -0.06968862       2.72885515       0.00000000
Si      -0.14061528       2.53992053      -2.84790745       0.00000000
Si       0.05963769       2.74857915       2.68826954       0.00000000
