10
Lattice="16.290000149 0.0 0.0 0.0 16.290000149 0.0 0.0 0.0 29.1751946751" Properties=species:S:1:pos:R:3:initial_magmoms:R:1 pbc="T T T"
H       -0.90645706      -0.06823881       1.21812273       0.00000000
Si      -0.88840774       1.41854950      -1.59471614       0.00000000
Si       0.33922296      -2.12059964      -0.93165149       0.00000000
Si       1.88388965       1.34447887       0.38350793       0.00000000
H        1.01325430       0.34793811       2.45806850       0.00000000
H       -2.18421209      -1.82377955       0.79169808       0.00000000
Si       0.28799091       2.87475497       1.47358073       0.00000000
Si      -0.32754303       0.38182131      -3.60293232       0.00000000
Si      -1.72211366      -2.81619894      -1.83418614       0.00000000
Si       1.56672334      -3.44020368       0.58356224       0.00000000
