10
Lattice="16.290000149 0.0 0.0 0.0 16.290000149 0.0 0.0 0.0 29.1751946751" Properties=species:S:1:pos:R:3:initial_magmoms:R:1 pbc="T T T"
Si      -1.39119859      -1.34179102      -1.28030966       0.00000000
Si       1.32926939      -1.40748859       1.31297129       0.00000000
Si      -1.42557049       1.35663121       1.27340972       0.00000000
Si       1.29652111       1.32255253      -1.46080200       0.00000000
Si       2.63212031       2.67711491      -0.08466641       0.00000000
Si       2.66651827      -0.03279177       2.65783106       0.00000000
Si      -0.07034022       2.69464295       2.64175553       0.00000000
Si      -0.13346397      -2.73328284      -2.65741385       0.00000000
Si      -2.75022444      -0.03023424       2.65444674       0.00000000
Si       2.67793104      -2.73204480      -0.09645319       0.00000000
