10
Lattice="16.290000149 0.0 0.0 0.0 16.290000149 0.0 0.0 0.0 29.1751946751" Properties=species:S:1:pos:R:3:initial_magmoms:R:1 pbc="T T T"
Si       1.42557049      -1.35663121      -1.27340972       0.00000000
Si       1.35523027       1.33801174       1.36834581       0.00000000
Si      -1.32465394      -1.38686545       1.38103702       0.00000000
Si      -1.34315938       1.33359715      -1.42176559       0.00000000
Si       0.03437190      -2.69842223      -2.55371938       0.00000000
Si      -2.68731245       2.61944831       0.03629394       0.00000000
Si       2.70343955       2.68543910      -0.00560164       0.00000000
Si       2.70609482      -0.03588687       2.71734846       0.00000000
Si       0.01260846       2.68201820       2.74401458       0.00000000
Si      -2.70780527      -0.06950943       2.73899645       0.00000000
