10
Lattice="16.290000149 0.0 0.0 0.0 16.290000149 0.0 0.0 0.0 29.1751946751" Properties=species:S:1:pos:R:3:initial_magmoms:R:1 pbc="T T T"
Si      -1.31233870       0.45874269      -0.60634807       0.00000000
H        0.57008485      -0.12077406      -2.33386970       0.00000000
Si       1.75614347      -0.63278506      -1.53528627       0.00000000
Si       1.06520311      -2.49575834      -0.11678830       0.00000000
Si      -2.57072492       0.70700230       1.33225609       0.00000000
Si       0.43517106      -2.16152012       2.21308439       0.00000000
Si      -2.28402092      -1.53779230      -1.48460896       0.00000000
Si      -1.34322454      -0.61260175       2.84746983       0.00000000
Si      -1.04163148       2.48798801      -1.80317291       0.00000000
Si       3.05243652       1.04280436      -0.35774624       0.00000000
