10
Lattice="16.290000149 0.0 0.0 0.0 16.290000149 0.0 0.0 0.0 29.1751946751" Properties=species:S:1:pos:R:3:initial_magmoms:R:1 pbc="T T T"
Si       1.33608952       1.40771665      -1.32808404       0.00000000
Si      -1.34477209       1.36950031       1.36569086       0.00000000
Si       1.37539729      -1.34980570       1.35889304       0.00000000
Si      -1.35426916      -1.37609776      -1.36266248       0.00000000
Si       2.72741843       0.05002659      -2.64499689       0.00000000
Si      -2.70476067      -2.69780321       0.02418624       0.00000000
Si       2.68325624       2.72285723       0.07818952       0.00000000
Si      -2.71034000       2.71565705      -0.00376360       0.00000000
Si       0.02041137      -2.69338862       2.73599141       0.00000000
Si      -2.69717605       0.02182860       2.73272378       0.00000000
