10
Lattice="16.290000149 0.0 0.0 0.0 16.290000149 0.0 0.0 0.0 29.1751946751" Properties=species:S:1:pos:R:3:initial_magmoms:R:1 pbc="T T T"
H       -0.64617544      -0.82564237       1.07755664       0.00000000
Si       1.23645988      -1.36748035      -1.41797281       0.00000000
Si      -1.57957615       1.08419725      -1.32239487       0.00000000
Si       1.27557217       1.46364022       1.29768348       0.00000000
H       -2.08267652      -1.73732852       0.52448247       0.00000000
Si      -3.17829306       1.01116918       0.47053754       0.00000000
H       -1.27674505      -2.48059235       2.18198363       0.00000000
Si       2.50735682      -0.02756268       2.65704333       0.00000000
Si      -0.28338084       2.67437819      -2.59848871       0.00000000
Si       2.56016900      -2.74093914      -0.08405374       0.00000000
