10
Lattice="16.290000149 0.0 0.0 0.0 16.290000149 0.0 0.0 0.0 29.1751946751" Properties=species:S:1:pos:R:3:initial_magmoms:R:1 pbc="T T T"
Si       1.30175020       1.28945125      -1.50106377       0.00000000
Si       1.26408772      -1.64556695       1.14515557       0.00000000
Si      -0.99269632       1.76925692       1.27305962       0.00000000
Si      -1.29629305      -1.67558942      -1.17754003       0.00000000
H        0.23118768      -2.75278197       1.36105201       0.00000000
H       -3.05243652      -1.04280436       0.35774624       0.00000000
H       -2.48235167      -1.16357842      -1.97612346       0.00000000
H       -0.29058102      -1.20761029       3.17761633       0.00000000
H       -1.85178206       0.49137156      -3.08055046       0.00000000
Si      -2.51983496       2.75718027      -0.23769031       0.00000000
