10
Lattice="16.290000149 0.0 0.0 0.0 16.290000149 0.0 0.0 0.0 29.1751946751" Properties=species:S:1:pos:R:3:initial_magmoms:R:1 pbc="T T T"
Si       0.85221136      -1.87307309      -1.11746831       0.00000000
Si       1.49464009       1.25433001       1.37129250       0.00000000
Si      -1.39100311       1.31331610      -1.43008052       0.00000000
Si      -1.32603859      -1.35728281       1.48475483       0.00000000
H        1.38670255      -1.61440417      -2.50291078       0.00000000
H        2.66445758       0.14113656      -2.07648613       0.00000000
Si      -0.00184077       2.54700326       2.70553250       0.00000000
Si      -2.81274546       2.48974733       0.03646899       0.00000000
H       -0.20478159      -0.77221117      -3.68526472       0.00000000
Si       2.54558945      -2.80197777       0.18972629       0.00000000
