10
Lattice="16.290000149 0.0 0.0 0.0 16.290000149 0.0 0.0 0.0 29.1751946751" Properties=species:S:1:pos:R:3:initial_magmoms:R:1 pbc="T T T"
Si       1.32121675       1.33910317       1.39459473       0.00000000
Si      -1.35207816       1.35786925      -1.37027137       0.00000000
Si       1.41424894      -1.39010716      -1.28381943       0.00000000
Si      -1.38005460      -1.35832537       1.35984707       0.00000000
Si       0.01699047      -2.64464894      -2.67485829       0.00000000
Si       2.67963986       2.65035044      -0.00595174       0.00000000
Si       0.13475088       2.54713700      -2.81938287       0.00000000
Si       2.61296489      -2.78519907       0.15898439       0.00000000
Si      -2.85855294      -0.01505196      -2.54197461       0.00000000
Si       2.67328676      -0.02883330       2.74905314       0.00000000
