10
Lattice="16.290000149 0.0 0.0 0.0 16.290000149 0.0 0.0 0.0 29.1751946751" Properties=species:S:1:pos:R:3:initial_magmoms:R:1 pbc="T T T"
H       -0.07876215      -1.06712533      -1.07198418       0.00000000
Si       2.19773605       0.19820043       0.65504147       0.00000000
Si      -1.61771104      -0.67761514       1.56443229       0.00000000
Si      -0.44856144       2.13770414      -0.88006975       0.00000000
H       -1.88928164       2.42822000      -0.43733617       0.00000000
H        1.08182217       0.73125811      -2.98185077       0.00000000
Si      -3.15854958      -1.39846393      -0.03649817       0.00000000
H       -1.26574930      -3.21547010       0.72739595       0.00000000
Si       3.02142036      -2.06096195       0.40658551       0.00000000
Si       3.51655491      -0.08304642      -1.25359976       0.00000000
