10
Lattice="16.290000149 0.0 0.0 0.0 16.290000149 0.0 0.0 0.0 29.1751946751" Properties=species:S:1:pos:R:3:initial_magmoms:R:1 pbc="T T T"
Si       1.35769006       1.35780409       1.35253285       0.00000000
Si      -1.33308402      -1.35651718       1.38322515       0.00000000
Si       1.37960011      -1.35834166      -1.33631144       0.00000000
Si      -1.36748198       1.35338950      -1.35927232       0.00000000
Si      -2.67033290      -2.73121401       0.03836538       0.00000000
Si       2.71267598       2.70138701      -0.02456551       0.00000000
Si      -0.00954594       2.71143794       2.70646611       0.00000000
Si      -0.01699047       2.67509495      -2.74612103       0.00000000
Si       2.70646949      -0.00340461       2.71729011       0.00000000
Si       0.05838336      -2.69744483      -2.73090617       0.00000000
