10
Lattice="16.290000149 0.0 0.0 0.0 16.290000149 0.0 0.0 0.0 29.1751946751" Properties=species:S:1:pos:R:3:initial_magmoms:R:1 pbc="T T T"
Si      -1.30805443      -1.31348715      -1.44685625       0.00000000
Si      -1.32103756       1.39580052       1.36539911       0.00000000
Si       1.26239356      -1.39013160       1.43151010       0.00000000
Si       1.36759438       1.35905028      -1.37520198       0.00000000
Si      -2.66005928      -2.66876629      -0.11077821       0.00000000
Si       2.66232359       0.02658528       2.69009882       0.00000000
Si       2.69164559      -2.67339265       0.01986831       0.00000000
Si      -2.67004505       2.72791528      -0.04183723       0.00000000
Si       0.07877844       2.76639226       2.68038349       0.00000000
Si      -2.68550426       0.03077181      -2.78424718       0.00000000
