10
Lattice="16.290000149 0.0 0.0 0.0 16.290000149 0.0 0.0 0.0 29.1751946751" Properties=species:S:1:pos:R:3:initial_magmoms:R:1 pbc="T T T"
Si       1.29031462       1.43715285      -1.28187053       0.00000000
Si      -1.03417066       1.62480045       1.31160005       0.00000000
Si       1.52713864      -0.98792335       1.51074993       0.00000000
Si      -1.57423303      -1.31199661      -1.20773636       0.00000000
Si       2.48173265       2.58660767       0.40880283       0.00000000
Si      -1.55865979       0.37209618       3.24285206       0.00000000
Si       2.58980051       0.02347389      -2.62273330       0.00000000
H        0.66805291      -2.26580870      -2.84286014       0.00000000
Si       3.05154057       0.86319082       1.94624806       0.00000000
Si       2.51983496      -2.75718027       0.23769031       0.00000000
