10
Lattice="16.290000149 0.0 0.0 0.0 16.290000149 0.0 0.0 0.0 29.1751946751" Properties=species:S:1:pos:R:3:initial_magmoms:R:1 pbc="T T T"
Si       1.34708527       1.36360333       1.35084069       0.00000000
Si      -1.34406348       1.35912358      -1.36052685       0.00000000
Si       1.35700588      -1.35583300      -1.35693830       0.00000000
Si      -1.36777031      -1.36259335       1.34684369       0.00000000
Si      -0.03899826      -2.69798240      -2.68671450       0.00000000
Si       2.69122205      -0.01814706       2.69476686       0.00000000
Si      -2.68131236      -0.01557324      -2.70538663       0.00000000
Si      -0.03921003       2.71513577       2.68665615       0.00000000
Si       2.69549003       2.71223615      -0.02646190       0.00000000
Si       2.68794776      -2.72341109       0.01648399       0.00000000
