10
Lattice="16.290000149 0.0 0.0 0.0 16.290000149 0.0 0.0 0.0 29.1751946751" Properties=species:S:1:pos:R:3:initial_magmoms:R:1 pbc="T T T"
Si      -0.47446254       2.03209607      -1.05885534       0.00000000
Si       1.58954563       0.81717157       1.56256508       0.00000000
Si       1.30103344      -1.50146560      -1.31661819       0.00000000
Si      -1.86715982      -0.90073927       1.27793188       0.00000000
H       -2.78151753      -0.73109521      -1.27104653       0.00000000
H        1.03920427       1.18144855      -2.76452475       0.00000000
H       -1.07460244       1.94261510      -2.45938139       0.00000000
Si      -2.18818685       2.48381777       0.46239766       0.00000000
Si       2.22690818      -2.53977392       0.52106898       0.00000000
Si       3.29533671      -0.77535514       1.57543134       0.00000000
