10
Lattice="16.290000149 0.0 0.0 0.0 16.290000149 0.0 0.0 0.0 29.1751946751" Properties=species:S:1:pos:R:3:initial_magmoms:R:1 pbc="T T T"
Si       1.30139182       1.23615037      -1.50004263       0.00000000
Si       1.44909325      -1.34972425       1.28347516       0.00000000
Si      -1.50387652       1.33649677       1.24633514       0.00000000
Si      -1.43602867      -1.40928049      -1.31670571       0.00000000
Si       2.50541831      -2.81724150      -0.19448185       0.00000000
Si      -2.81669578      -0.15179022       2.51420158       0.00000000
Si      -0.11966634       2.60687243      -2.75337982       0.00000000
Si       0.13406670      -2.70785414       2.66672949       0.00000000
Si       2.48406212      -0.21659184      -2.91086752       0.00000000
Si       3.15610608       2.16720533      -0.39217297       0.00000000
