10
Lattice="16.290000149 0.0 0.0 0.0 16.290000149 0.0 0.0 0.0 29.1751946751" Properties=species:S:1:pos:R:3:initial_magmoms:R:1 pbc="T T T"
Si      -0.64519804       0.84085723      -1.07965725       0.00000000
Si       2.14783652       0.25215291       1.31448840       0.00000000
Si       2.25253235      -1.47922975      -0.49238976       0.00000000
Si       0.38936358       1.22474737       2.57249362       0.00000000
Si      -2.07593246       2.06889518       0.20533502       0.00000000
Si       0.41914170      -2.66606704      -1.50059696       0.00000000
Si      -2.08513631      -0.48850452      -2.29092381       0.00000000
Si      -0.69250420      -2.30819202       2.13644116       0.00000000
Si      -1.37702629      -0.25840827       2.90538259       0.00000000
Si       0.85478518       2.20288043      -2.24106340       0.00000000
