10
Lattice="16.290000149 0.0 0.0 0.0 16.290000149 0.0 0.0 0.0 29.1751946751" Properties=species:S:1:pos:R:3:initial_magmoms:R:1 pbc="T T T"
Si       0.92587474      -1.03830832       1.83768716       0.00000000
Si      -0.76563001      -2.04630095      -0.88106170       0.00000000
Si      -1.30103344       1.50146560       1.31661819       0.00000000
Si       1.98825968       0.60281146      -1.17418488       0.00000000
H       -0.26182917       2.68291415      -1.44790656       0.00000000
Si      -0.15959313      -1.52726896      -3.06494173       0.00000000
Si       2.26913186      -2.58124826       0.68923480       0.00000000
Si      -1.00843246      -2.07640487       2.73602058       0.00000000
Si       1.99430327       0.72611047       2.89204952       0.00000000
Si       0.28851219       2.31863717       2.87918326       0.00000000
