10
Lattice="16.290000149 0.0 0.0 0.0 16.290000149 0.0 0.0 0.0 29.1751946751" Properties=species:S:1:pos:R:3:initial_magmoms:R:1 pbc="T T T"
Si      -1.41945686       1.22171743      -1.37578548       0.00000000
Si      -1.31281926      -1.48828699       1.26786643       0.00000000
Si       1.50387652      -1.33649677      -1.24633514       0.00000000
Si       0.66318220       1.87866056       1.29526194       0.00000000
Si       0.04595409       2.60201801      -2.59239110       0.00000000
Si       0.25456383      -2.56135817       2.63037720       0.00000000
Si      -2.76043827       2.52452648       0.04729299       0.00000000
Si       0.06784785      -2.74577727      -2.56304085       0.00000000
Si      -2.70762608      -0.18884997      -2.69380407       0.00000000
Si      -0.99013879       3.53154171       1.20023833       0.00000000
