10
Lattice="16.290000149 0.0 0.0 0.0 16.290000149 0.0 0.0 0.0 29.1751946751" Properties=species:S:1:pos:R:3:initial_magmoms:R:1 pbc="T T T"
Si      -1.56387259       1.28482489      -1.12236974       0.00000000
Si      -1.39308823      -1.43355259       1.17835694       0.00000000
Si       1.56043540       1.12062169       1.46970043       0.00000000
Si       1.07719255      -1.10788291      -1.86508267       0.00000000
Si       2.10300644      -2.44710011      -0.25131513       0.00000000
Si       0.31270284      -3.02607930       1.19122320       0.00000000
Si       0.05799240       2.31353840      -2.51259694       0.00000000
Si       1.83638801       0.76462003      -3.14698237       0.00000000
Si      -3.45709641      -0.21862809      -1.44306348       0.00000000
Si      -2.53405613       2.74238895       0.38817597       0.00000000
