10
Lattice="16.290000149 0.0 0.0 0.0 16.290000149 0.0 0.0 0.0 29.1751946751" Properties=species:S:1:pos:R:3:initial_magmoms:R:1 pbc="T T T"
Si       1.35702217       1.36467847      -1.33243114       0.00000000
Si      -1.34618932       1.36529749       1.35880552       0.00000000
Si       1.38484549      -1.33804432       1.34946945       0.00000000
Si      -1.33410214      -1.35005005      -1.39571214       0.00000000
Si       2.69410538      -0.07902279      -2.61721919       0.00000000
Si      -2.68908806      -2.69363297      -0.01861377       0.00000000
Si       0.02471193      -2.69990462       2.69377490       0.00000000
Si      -0.02624319       2.72261288      -2.67641566       0.00000000
Si      -2.71635752       0.02220327       2.70045602       0.00000000
Si      -2.72569169       2.71290404       0.02377778       0.00000000
