10
Lattice="16.290000149 0.0 0.0 0.0 16.290000149 0.0 0.0 0.0 29.1751946751" Properties=species:S:1:pos:R:3:initial_magmoms:R:1 pbc="T T T"
Si       1.34232859       1.32087466      -1.40162595       0.00000000
Si      -1.33747417      -1.29868768      -1.42785445       0.00000000
Si      -1.33527502       1.34317567       1.39218194       0.00000000
Si       1.36684504      -1.36270738       1.34576420       0.00000000
Si      -2.68659569       2.68563458       0.02935025       0.00000000
Si      -2.67975389      -2.71454933      -0.07039974       0.00000000
Si       2.71551696       2.68579748      -0.03466013       0.00000000
Si      -2.69084738      -0.02787219       2.73348234       0.00000000
Si       0.01863576      -2.71013474       2.71971165       0.00000000
Si       2.72868091      -0.00803097       2.70182725       0.00000000
