10
Lattice="16.290000149 0.0 0.0 0.0 16.290000149 0.0 0.0 0.0 29.1751946751" Properties=species:S:1:pos:R:3:initial_magmoms:R:1 pbc="T T T"
Si      -0.85309102       1.84166597      -1.12190294       0.00000000
Si       1.71372431      -0.45172170      -1.52125300       0.00000000
Si       1.36855549       1.02952801       1.63754533       0.00000000
Si      -1.38295585      -1.73509679       0.91572184       0.00000000
H        1.11358441      -0.54120268      -2.92177905       0.00000000
H       -1.99547615      -1.17915166      -2.20126844       0.00000000
Si       2.18818685      -2.48381777      -0.46239766       0.00000000
Si       0.32102703      -3.38455704       0.81553422       0.00000000
Si       2.63676458       2.50929533       0.30998644       0.00000000
Si      -2.57610062       2.59963967       0.25513708       0.00000000
