10
Lattice="16.290000149 0.0 0.0 0.0 16.290000149 0.0 0.0 0.0 29.1751946751" Properties=species:S:1:pos:R:3:initial_magmoms:R:1 pbc="T T T"
Si       1.32561505      -1.48489944      -1.20756423       0.00000000
Si       1.36474363       1.28092430       1.40740264       0.00000000
Si      -1.35721765      -1.39268175       1.30712749       0.00000000
Si      -1.38816865       1.32348029      -1.36219859       0.00000000
Si       2.70932024       2.61141658       0.07638941       0.00000000
Si      -2.70640433       2.64062455       0.04047475       0.00000000
Si      -2.68908806      -0.04110044       2.68431338       0.00000000
Si       0.03098358       2.69917081       2.69397037       0.00000000
Si       0.02604771      -2.75061616       2.65111201       0.00000000
Si      -2.70438437      -2.70782233      -0.09914606       0.00000000
