10
Lattice="16.290000149 0.0 0.0 0.0 16.290000149 0.0 0.0 0.0 29.1751946751" Properties=species:S:1:pos:R:3:initial_magmoms:R:1 pbc="T T T"
Si       1.33367860       1.36379230      -1.37024219       0.00000000
Si      -1.36259335      -1.34235140      -1.37718589       0.00000000
Si      -1.42389262       1.36338505       1.29820864       0.00000000
Si       1.40212918      -1.34018483       1.35991417       0.00000000
Si       0.05905125      -2.71921479       2.67262288       0.00000000
Si       2.70503597      -2.68746558      -0.07142088       0.00000000
Si       2.69505020       2.70921599      -0.00247989       0.00000000
Si      -0.12958695       2.79946259       2.61141332       0.00000000
Si      -2.72552879      -2.69251548      -0.02757056       0.00000000
Si       2.63300159       0.09263146       2.78658119       0.00000000
