10
Lattice="16.290000149 0.0 0.0 0.0 16.290000149 0.0 0.0 0.0 29.1751946751" Properties=species:S:1:pos:R:3:initial_magmoms:R:1 pbc="T T T"
Si      -1.66648168      -0.79584796       1.44729388       0.00000000
Si       1.11216229       1.69319891       1.25567120       0.00000000
Si      -0.52476444       0.66665197      -2.22904322       0.00000000
Si       1.44070553      -1.91866880      -0.02970035       0.00000000
H       -2.83480049      -1.36632376       0.40833602       0.00000000
Si       2.46759456       0.28087218       2.56744631       0.00000000
Si       0.90480037      -2.86684455      -2.10420257       0.00000000
Si      -0.52570926      -2.28131678       2.84485456       0.00000000
Si       3.49083463      -0.94814317       0.72269875       0.00000000
Si       1.67596571      -0.76134574      -3.27675364       0.00000000
