10
Lattice="16.290000149 0.0 0.0 0.0 16.290000149 0.0 0.0 0.0 29.1751946751" Properties=species:S:1:pos:R:3:initial_magmoms:R:1 pbc="T T T"
Si      -1.31823568       1.31714425       1.40267334       0.00000000
Si       0.99887023       1.78176764      -1.15071344       0.00000000
Si       1.38816865      -1.32348029       1.36219859       0.00000000
Si      -1.30091941      -1.27616203      -1.51037065       0.00000000
Si      -2.51695163       2.71223615      -0.04013048       0.00000000
Si       1.09053406       1.09387351      -3.37915857       0.00000000
Si      -2.65329893      -2.63494010      -0.10985044       0.00000000
Si      -0.63860059       3.51508881      -1.23596365       0.00000000
Si       0.11639205       2.72352512       2.63872131       0.00000000
Si       0.03095100      -2.71616204       2.66932609       0.00000000
