10
Lattice="16.290000149 0.0 0.0 0.0 16.290000149 0.0 0.0 0.0 29.1751946751" Properties=species:S:1:pos:R:3:initial_magmoms:R:1 pbc="T T T"
Si      -1.34917184      -1.40998096       1.30556079       0.00000000
Si       1.33827419      -1.36383139      -1.37228446       0.00000000
Si      -1.43976053       1.34861653      -1.28659691       0.00000000
Si       1.37998474       1.36021501       1.35617975       0.00000000
Si      -2.58563172      -0.04250061       2.72353360       0.00000000
Si      -0.06056767       2.67550220      -2.67524865       0.00000000
Si       0.00143665       2.75651710       2.65395076       0.00000000
Si       2.70990523      -2.70615998      -0.01671739       0.00000000
Si       2.69846965      -0.01363473      -2.72542999       0.00000000
Si      -0.02546272      -2.78343975       2.63947986       0.00000000
