10
Lattice="16.290000149 0.0 0.0 0.0 16.290000149 0.0 0.0 0.0 29.1751946751" Properties=species:S:1:pos:R:3:initial_magmoms:R:1 pbc="T T T"
Si      -1.30466611      -1.36342414      -1.34951030       0.00000000
Si       1.31846374      -1.38986281       1.34170885       0.00000000
Si      -1.41622003       1.33411843       1.30270162       0.00000000
Si       1.30663720       1.29121057      -1.47030144       0.00000000
Si      -0.04388526       2.66004299       2.66839248       0.00000000
Si       2.69594615      -0.02684592       2.64937025       0.00000000
Si       2.67744071       2.69361668      -0.15343235       0.00000000
Si       2.64865628      -2.74711305      -0.02450716       0.00000000
Si      -2.76799683      -0.04028517       2.65050809       0.00000000
Si      -2.76830634       2.65422746      -0.10374699       0.00000000
