10
Lattice="16.290000149 0.0 0.0 0.0 16.290000149 0.0 0.0 0.0 29.1751946751" Properties=species:S:1:pos:R:3:initial_magmoms:R:1 pbc="T T T"
Si       1.28816923       1.41056740       1.31801859       0.00000000
Si      -1.32370912       1.37345878      -1.33391908       0.00000000
Si       1.40395366      -1.31924566      -1.31340891       0.00000000
Si      -1.31981581      -1.32440959       1.44210070       0.00000000
Si      -2.56016900       2.74093914       0.08405374       0.00000000
Si       0.01242927      -2.69550632      -2.62457134       0.00000000
Si       2.77547394      -2.55692729       0.13076322       0.00000000
Si      -2.71155197       0.01394424      -2.66395785       0.00000000
Si       2.73536796       0.07727976      -2.65619725       0.00000000
Si       2.70762608       0.18884997       2.69380407       0.00000000
