10
Lattice="16.290000149 0.0 0.0 0.0 16.290000149 0.0 0.0 0.0 29.1751946751" Properties=species:S:1:pos:R:3:initial_magmoms:R:1 pbc="T T T"
Si       2.20630133      -0.38143035       0.80815289       0.00000000
Si       0.04654053       2.29570085       0.66668237       0.00000000
Si       0.14796207      -0.41049171      -2.36100263       0.00000000
Si      -1.54165303      -1.36536265       1.27629807       0.00000000
H       -2.15554169      -0.19422567      -1.46468230       0.00000000
H       -0.86781718       2.46534491      -1.88229603       0.00000000
Si       0.47716668       2.03978495       2.95134781       0.00000000
Si      -0.71229655       1.66891052      -3.15696029       0.00000000
Si       2.11463750       0.30646377       3.03659802       0.00000000
Si       2.44910378      -0.35132643      -2.80892939       0.00000000
