10
Lattice="16.290000149 0.0 0.0 0.0 16.290000149 0.0 0.0 0.0 29.1751946751" Properties=species:S:1:pos:R:3:initial_magmoms:R:1 pbc="T T T"
Si       1.37748241       1.36301689       1.30766140       0.00000000
Si      -1.31846374       1.38986281      -1.34170885       0.00000000
Si       1.33019254      -1.35725023      -1.36621602       0.00000000
Si      -1.37132479      -1.35697330       1.33829535       0.00000000
Si      -2.62312985       0.02643867      -2.69121915       0.00000000
Si      -0.00566892       2.68037291       2.66562084       0.00000000
Si       2.73650826       0.05146011      -2.62709499       0.00000000
Si       2.70798446      -0.00092853       2.68502234       0.00000000
Si       2.70181055      -2.69597873      -0.00081691       0.00000000
Si      -0.00970884      -2.72033228       2.67764102       0.00000000
