10
Lattice="16.290000149 0.0 0.0 0.0 16.290000149 0.0 0.0 0.0 29.1751946751" Properties=species:S:1:pos:R:3:initial_magmoms:R:1 pbc="T T T"
Si      -1.37759644       1.36720342       1.31171675       0.00000000
Si      -1.37826433      -1.33496551      -1.34558915       0.00000000
Si       1.35638686       1.35492076      -1.35743428       0.00000000
Si       1.35537688      -1.34993602       1.36980457       0.00000000
Si      -0.00117288       2.70692561       2.64569418       0.00000000
Si      -0.00926901      -2.68242545      -2.68475976       0.00000000
Si      -2.73093707       0.01562211       2.67311886       0.00000000
Si       2.71402805      -2.70326036       0.01744677       0.00000000
Si      -0.00029322       2.72445365      -2.69637149       0.00000000
Si      -2.72877050      -2.70005123       0.00977369       0.00000000
