10
Lattice="16.290000149 0.0 0.0 0.0 16.290000149 0.0 0.0 0.0 29.1751946751" Properties=species:S:1:pos:R:3:initial_magmoms:R:1 pbc="T T T"
Si       1.35240396       1.34767171      -1.36703292       0.00000000
Si       1.35035142      -1.36158337       1.35720088       0.00000000
Si      -1.33283967       1.34721559       1.38999380       0.00000000
Si      -1.36183587      -1.35467641      -1.35606305       0.00000000
Si       2.68098379       2.69131979       0.04565918       0.00000000
Si      -2.70180241       2.70304859       0.04913103       0.00000000
Si      -2.71004515      -2.70210377       0.01788439       0.00000000
Si       2.69031796       0.00061902       2.72233742       0.00000000
Si      -2.68059283      -0.00793323       2.74602767       0.00000000
Si      -0.00758462      -2.71963181      -2.70853755       0.00000000
