10
Lattice="16.290000149 0.0 0.0 0.0 16.290000149 0.0 0.0 0.0 29.1751946751" Properties=species:S:1:pos:R:3:initial_magmoms:R:1 pbc="T T T"
Si      -1.37614663      -1.32077692       1.36236489       0.00000000
Si      -1.37455021       1.35163018      -1.34459720       0.00000000
Si       1.28977705      -1.36883242      -1.41155427       0.00000000
Si       1.41002983       1.32493087       1.35559625       0.00000000
Si       0.04491153      -2.69149898       2.61570208       0.00000000
Si       0.04606812       2.69612534       2.69794695       0.00000000
Si      -0.01161477       2.70179426      -2.69421253       0.00000000
Si       2.67828779      -0.00889434      -2.72405875       0.00000000
Si       2.61068429      -2.80833087      -0.13534373       0.00000000
Si      -2.73261494      -2.70272279       0.01207853       0.00000000
