10
Lattice="16.290000149 0.0 0.0 0.0 16.290000149 0.0 0.0 0.0 29.1751946751" Properties=species:S:1:pos:R:3:initial_magmoms:R:1 pbc="T T T"
Si       1.33988998      -1.35940051       1.36119788       0.00000000
Si      -1.35095741      -1.36187659      -1.35305800       0.00000000
Si      -1.32810254       1.34944732       1.39460348       0.00000000
Si       1.35857461       1.35254242      -1.36274417       0.00000000
Si       2.69059163       0.02723688       2.68408873       0.00000000
Si      -2.67236964       2.70619256       0.02608262       0.00000000
Si       0.03503653      -2.71541270      -2.68598512       0.00000000
Si      -2.70182196       0.01202202      -2.70206065       0.00000000
Si      -2.69258553      -2.71559189       0.02371943       0.00000000
Si       2.69854115       2.71474481       0.00239237       0.00000000
