10
Lattice="16.290000149 0.0 0.0 0.0 16.290000149 0.0 0.0 0.0 29.1751946751" Properties=species:S:1:pos:R:3:initial_magmoms:R:1 pbc="T T T"
Si      -1.35702217      -1.36467847       1.33243114       0.00000000
Si       1.33708321      -1.44370126      -1.28478805       0.00000000
Si       1.37989333       1.34025976       1.36201479       0.00000000
Si      -1.38326536       1.35793441      -1.34398452       0.00000000
Si       2.69439860      -0.10417455      -2.59740923       0.00000000
Si       0.02782332      -2.70272279       2.68190060       0.00000000
Si      -2.70321149       0.00061902       2.69123666       0.00000000
Si      -0.02604771       2.75061616      -2.65111201       0.00000000
Si      -2.69112431      -2.71472852      -0.06328100       0.00000000
Si      -2.71513577       2.70951572       0.03320137       0.00000000
