10
Lattice="16.290000149 0.0 0.0 0.0 16.290000149 0.0 0.0 0.0 29.1751946751" Properties=species:S:1:pos:R:3:initial_magmoms:R:1 pbc="T T T"
Si       1.36896274      -1.35583300       1.34086277       0.00000000
Si       1.39810458       1.33452568      -1.33552371       0.00000000
Si      -1.35143470       1.36098064       1.35877634       0.00000000
Si      -1.36215352      -1.35184195      -1.35877634       0.00000000
Si       0.07727976       2.76938962      -2.60910848       0.00000000
Si       2.70180241      -2.70304859      -0.04913103       0.00000000
Si       0.02120958      -2.71098182       2.69689665       0.00000000
Si      -2.71153568      -0.00335574       2.69969746       0.00000000
Si       2.68463112       0.01058850       2.73333646       0.00000000
Si      -2.71375112       2.71293988       0.00749803       0.00000000
