10
Lattice="16.290000149 0.0 0.0 0.0 16.290000149 0.0 0.0 0.0 29.1751946751" Properties=species:S:1:pos:R:3:initial_magmoms:R:1 pbc="T T T"
Si       1.32090724      -1.43949844       1.27621054       0.00000000
Si      -1.34793235      -1.36241416      -1.34803987       0.00000000
Si       1.38851074       1.35993808      -1.31250448       0.00000000
Si      -1.28977705       1.36883242       1.41155427       0.00000000
Si       2.74704789      -0.05009175       2.45590954       0.00000000
Si       0.01847286       2.70163136      -2.66518321       0.00000000
Si      -2.66432726       2.72046260       0.06695707       0.00000000
Si      -2.71570592      -0.00522909      -2.67484020       0.00000000
Si      -0.06219522      -2.77540878       2.61643146       0.00000000
Si       2.73800694      -0.01278765      -2.66223651       0.00000000
