10
Lattice="16.290000149 0.0 0.0 0.0 16.290000149 0.0 0.0 0.0 29.1751946751" Properties=species:S:1:pos:R:3:initial_magmoms:R:1 pbc="T T T"
Si      -1.33988998       1.35940051      -1.36119788       0.00000000
Si       1.35070165       1.38663739       1.32289085       0.00000000
Si       1.38629530      -1.35153244      -1.33581546       0.00000000
Si      -1.35113822      -1.36425493       1.36434880       0.00000000
Si       2.66203037      -0.03932406       2.61987413       0.00000000
Si      -2.66799251       2.70884783       0.03340560       0.00000000
Si       0.03921003      -2.71513577      -2.68665615       0.00000000
Si      -2.69084738      -0.00247608      -2.71425589       0.00000000
Si      -2.69307911      -2.72860761       0.01309966       0.00000000
Si       0.01868463       2.71194293      -2.72394205       0.00000000
