10
Lattice="16.28999089631971 0.0 0.0 0.0 16.28999089631971 0.0 0.0 0.0 34.281931910070035" Properties=species:S:1:pos:R:3:initial_magmoms:R:1 pbc="T T T"
Si       1.48318821       1.33103961       1.22155985       0.00000000
Si      -0.83820195       1.35327546      -1.72392623       0.00000000
Si      -1.37066992      -1.57728902       1.12406198       0.00000000
Si       0.06359616       0.07957665      -3.48766405       0.00000000
Si      -0.01233153       2.50201368       2.66318788       0.00000000
Si      -0.11433951      -2.20747093      -3.00555697       0.00000000
Si       2.70174537      -0.21442527       2.64076749       0.00000000
Si      -2.73877973      -0.22278204       2.64238902       0.00000000
Si      -3.28514633       1.04226678      -1.86839037       0.00000000
Si      -0.02531466      -2.92911137       2.63945449       0.00000000
