10
Lattice="16.28999089631971 0.0 0.0 0.0 16.28999089631971 0.0 0.0 0.0 34.281931910070035" Properties=species:S:1:pos:R:3:initial_magmoms:R:1 pbc="T T T"
Si       1.27351962      -1.36507824       1.51073702       0.00000000
Si      -0.89616177      -1.88761257      -1.23578347       0.00000000
Si       1.30719105       1.45599857      -1.47212324       0.00000000
Si      -1.43918892       1.34260388       1.48563920       0.00000000
Si       2.58012423      -2.76741918       0.11875611       0.00000000
Si       2.69610903       2.70682622       0.06152582       0.00000000
Si      -2.74916556      -2.70611991       0.05066872       0.00000000
Si       2.93329143       0.08168295      -2.55406162       0.00000000
Si       2.62557333      -0.01973045       2.88481933       0.00000000
Si      -2.65774608       2.88806876       0.06643156       0.00000000
