10
Lattice="16.28999089631971 0.0 0.0 0.0 16.28999089631971 0.0 0.0 0.0 34.281931910070035" Properties=species:S:1:pos:R:3:initial_magmoms:R:1 pbc="T T T"
Si       1.35459495      -1.35636056       1.35694819       0.00000000
Si       1.35654975       1.35730886      -1.35780524       0.00000000
Si      -1.35814617      -1.35815279      -1.35749670       0.00000000
Si      -1.36107837       1.35766724       1.36260471       0.00000000
Si       0.00653229      -2.71234757       2.70333753       0.00000000
Si       2.71331127      -2.71332497      -0.00010285       0.00000000
Si       2.71352304       0.00039585      -2.71489055       0.00000000
Si      -2.71461447      -2.71523090       0.00034282       0.00000000
Si      -0.00079821       2.71480343      -2.71533622       0.00000000
Si      -2.71427890       2.71600889      -0.00126843       0.00000000
