10
Lattice="16.28999089631971 0.0 0.0 0.0 16.28999089631971 0.0 0.0 0.0 34.281931910070035" Properties=species:S:1:pos:R:3:initial_magmoms:R:1 pbc="T T T"
Si      -1.34806266      -1.35598701       1.34638935       0.00000000
Si      -1.35459495       1.35636056      -1.35694819       0.00000000
Si       1.35871632      -1.35696441      -1.35705103       0.00000000
Si       1.35811359       1.36429379       1.36829551       0.00000000
Si       0.09689292      -2.40288015       2.82325580       0.00000000
Si      -2.61710253       0.11711608       2.65547993       0.00000000
Si       2.71052568       2.71648760       0.00226261       0.00000000
Si      -2.71274112      -0.00179223      -2.71444489       0.00000000
Si       0.00195480       2.71366943      -2.71475342       0.00000000
Si      -2.71567332       2.71402781       0.00565652       0.00000000
