10
Lattice="16.28999089631971 0.0 0.0 0.0 16.28999089631971 0.0 0.0 0.0 34.281931910070035" Properties=species:S:1:pos:R:3:initial_magmoms:R:1 pbc="T T T"
Si       1.55817108      -1.14979707       1.32434605       0.00000000
Si       1.35241209       1.35219380      -1.36603290       0.00000000
Si      -1.35811359      -1.36429379      -1.36829551       0.00000000
Si      -1.25468838       1.41349307       1.49465878       0.00000000
Si      -0.08949726      -2.10648989       2.67735181       0.00000000
Si       0.72203796       2.26705649       2.86641677       0.00000000
Si      -2.70387936       2.71128479       0.02122053       0.00000000
Si      -2.70617625      -2.72028080      -0.02190617       0.00000000
Si       0.00239463       2.70792905      -2.72606647       0.00000000
Si      -2.71270854      -0.00793323      -2.72524370       0.00000000
