10
Lattice="16.28999089631971 0.0 0.0 0.0 16.28999089631971 0.0 0.0 0.0 34.281931910070035" Properties=species:S:1:pos:R:3:initial_magmoms:R:1 pbc="T T T"
Si      -1.39937616       0.86224273      -1.62708996       0.00000000
Si      -0.22788081       1.91167222       1.36980392       0.00000000
Si      -1.28200671      -1.63184979       1.15063941       0.00000000
Si       2.16847593      -0.70287996      -0.74974627       0.00000000
Si       1.78829991       1.63119101       2.56946651       0.00000000
Si      -3.04608339      -1.97753988      -0.45838397       0.00000000
Si      -2.40999147      -1.00867584      -2.57601437       0.00000000
Si       3.27733623       1.39529551      -1.09270291       0.00000000
Si       2.97022086      -2.00676414       1.06088926       0.00000000
Si      -3.34135593       1.68232531      -0.39568228       0.00000000
