10
Lattice="16.28999089631971 0.0 0.0 0.0 16.28999089631971 0.0 0.0 0.0 34.281931910070035" Properties=species:S:1:pos:R:3:initial_magmoms:R:1 pbc="T T T"
Si      -1.34684091      -1.35083196      -1.39085304       0.00000000
Si       1.37011932       1.36071999      -1.38886468       0.00000000
Si       1.43832555      -1.26809505       1.50871438       0.00000000
Si      -1.36798533       1.41304347       1.47052429       0.00000000
Si       2.25776142       0.80228250       2.84296792       0.00000000
Si       0.35528490       2.43867816       2.85390386       0.00000000
Si      -2.69459406      -2.70531288      -0.00284540       0.00000000
Si       2.72723922      -2.68511328      -0.00994177       0.00000000
Si      -2.70299970       2.72965014      -0.01079881       0.00000000
Si      -2.70295083       0.00664632      -2.75170937       0.00000000
