10
Lattice="16.28999089631971 0.0 0.0 0.0 16.28999089631971 0.0 0.0 0.0 34.281931910070035" Properties=species:S:1:pos:R:3:initial_magmoms:R:1 pbc="T T T"
Si       0.87773778      -1.99847349      -0.90288375       0.00000000
Si       0.43983000      -0.24615819       2.34749088       0.00000000
Si       0.94892508       2.17720737      -0.46952560       0.00000000
Si      -2.23674732      -0.28246860      -0.94964433       0.00000000
Si      -0.40193946      -3.39531981       0.54744848       0.00000000
Si      -3.70289945      -1.03575078       0.70637960       0.00000000
Si      -2.34391923      -2.57523723       1.77885616       0.00000000
Si      -1.02630258       1.24957332       3.56196328       0.00000000
Si      -0.09003483       3.18181167      -2.33130980       0.00000000
Si      -2.01777714      -1.80151110      -2.88842579       0.00000000
