10
Lattice="16.28999089631971 0.0 0.0 0.0 16.28999089631971 0.0 0.0 0.0 34.281931910070035" Properties=species:S:1:pos:R:3:initial_magmoms:R:1 pbc="T T T"
Si       1.29432195       1.27097838       1.53320682       0.00000000
Si       1.32087465      -1.34573319      -1.53720269       0.00000000
Si      -0.87977403       1.29466404      -1.91368707       0.00000000
Si      -1.43876538      -1.36448298       1.64020079       0.00000000
Si      -3.21277896       1.11420342      -1.46617048       0.00000000
Si       2.52617175      -2.79655317       0.10164598       0.00000000
Si      -0.54690417      -2.06946531      -3.30951099       0.00000000
Si       2.49940728      -0.19267812       3.06033747       0.00000000
Si       2.57201181       3.01140198       0.08231096       0.00000000
Si      -0.22573053       2.50957224       3.05682014       0.00000000
