10
Lattice="16.28999089631971 0.0 0.0 0.0 16.28999089631971 0.0 0.0 0.0 34.281931910070035" Properties=species:S:1:pos:R:3:initial_magmoms:R:1 pbc="T T T"
Si       1.05446799       1.69635915      -1.33819596       0.00000000
Si      -1.72327023      -1.02563469      -1.38337957       0.00000000
Si       1.90247652      -1.63639566      -0.01093594       0.00000000
Si      -0.53742339       1.44704070       2.26819673       0.00000000
Si      -1.54976544      -2.71393029       1.63878011       0.00000000
Si       2.36473785       0.31223043      -2.88016384       0.00000000
Si      -0.35528490      -2.43867816      -2.85390386       0.00000000
Si       3.17241234      -1.02967461       2.07813759       0.00000000
Si       2.39321277       3.19596768       0.20863995       0.00000000
Si      -1.26307773       3.51000630       1.45677723       0.00000000
