10
Lattice="16.28999089631971 0.0 0.0 0.0 16.28999089631971 0.0 0.0 0.0 34.281931910070035" Properties=species:S:1:pos:R:3:initial_magmoms:R:1 pbc="T T T"
Si       0.95311161       2.04939603       0.55293359       0.00000000
Si       0.80775594      -1.97144838       0.99561642       0.00000000
Si      -2.28390687       0.34748199       0.52742782       0.00000000
Si      -0.00653229      -0.20856087      -2.37210532       0.00000000
Si      -1.29209022       1.95154200      -2.36518037       0.00000000
Si      -3.09264510       0.75163689      -1.63020962       0.00000000
Si      -2.73455343      -1.57864761       1.76390923       0.00000000
Si      -0.72580095      -2.27483334       2.74310460       0.00000000
Si       0.09661599       3.43560987      -1.19033791       0.00000000
Si       3.19222098       1.77756480      -0.10421713       0.00000000
