10
Lattice="16.28999089631971 0.0 0.0 0.0 16.28999089631971 0.0 0.0 0.0 34.281931910070035" Properties=species:S:1:pos:R:3:initial_magmoms:R:1 pbc="T T T"
Si       1.95473484       0.32464341      -1.25430803       0.00000000
Si       0.00653229       0.20856087       2.37210532       0.00000000
Si       0.02723688      -2.41417800      -0.19400156       0.00000000
Si      -1.28555793       2.16010287       0.00692495       0.00000000
Si      -3.08611281       0.96019776       0.74189570       0.00000000
Si       1.22908050       2.38760901      -2.06572753       0.00000000
Si      -3.26864226      -0.78607395      -1.27443153       0.00000000
Si      -2.27737458       0.55604286       2.89953314       0.00000000
Si      -2.10970161      -2.86008417      -1.14717693       0.00000000
Si       3.69522360       0.64161423       0.36431429       0.00000000
