10
Lattice="16.28999089631971 0.0 0.0 0.0 16.28999089631971 0.0 0.0 0.0 34.281931910070035" Properties=species:S:1:pos:R:3:initial_magmoms:R:1 pbc="T T T"
Si       1.35205371       1.34534779       1.37408231       0.00000000
Si      -1.36529748      -1.36945143       1.36729448       0.00000000
Si       1.30660461      -1.40234094      -1.39198091       0.00000000
Si      -1.27351962       1.36507824      -1.51073702       0.00000000
Si      -2.16968139      -0.52253433      -2.74652049       0.00000000
Si      -0.51421014      -2.35375839      -2.63337767       0.00000000
Si       2.70430290       2.68621190      -0.00147070       0.00000000
Si      -2.71270854       2.70768212      -0.02509782       0.00000000
Si      -0.00201996       2.70286028       2.72712235       0.00000000
Si       2.71106325      -0.01008867       2.72674525       0.00000000
