10
Lattice="16.28999089631971 0.0 0.0 0.0 16.28999089631971 0.0 0.0 0.0 34.281931910070035" Properties=species:S:1:pos:R:3:initial_magmoms:R:1 pbc="T T T"
Si      -1.30062618       1.50498423      -1.19486312       0.00000000
Si       0.32161347       1.08752040       2.07210397       0.00000000
Si       1.52808345      -1.62727326      -0.78560519       0.00000000
Si      -2.12820705      -1.31323464       0.46253208       0.00000000
Si      -2.02030209       0.63602676       1.79935677       0.00000000
Si       2.02600359      -1.89692163       1.64114556       0.00000000
Si      -2.47234959      -0.15569982      -2.41725465       0.00000000
Si       0.34704216       2.46167705      -2.54786889       0.00000000
Si       2.96844525      -0.43062615      -2.26380864       0.00000000
Si       0.44044902       3.42772618       1.68550641       0.00000000
