10
Lattice="16.28999089631971 0.0 0.0 0.0 16.28999089631971 0.0 0.0 0.0 34.281931910070035" Properties=species:S:1:pos:R:3:initial_magmoms:R:1 pbc="T T T"
Si      -1.53387684      -1.13502204      -1.37760105       0.00000000
Si       1.37066992       1.57728902      -1.12406198       0.00000000
Si       1.34535526      -1.35182234       1.51539251       0.00000000
Si      -1.36810980       1.35450698       1.51832704       0.00000000
Si       2.76243865      -2.68586003       0.08173503       0.00000000
Si      -2.79666135      -2.67470138      -0.03846778       0.00000000
Si      -2.89676340       2.60919536       0.07319882       0.00000000
Si      -2.37056382       0.28775633      -3.15601154       0.00000000
Si       2.70881197       0.00172185       2.90563533       0.00000000
Si      -0.00826066       2.71579712       2.90320131       0.00000000
