10
Lattice="16.28999089631971 0.0 0.0 0.0 16.28999089631971 0.0 0.0 0.0 34.281931910070035" Properties=species:S:1:pos:R:3:initial_magmoms:R:1 pbc="T T T"
Si      -1.39843134       1.78359210       0.55406489       0.00000000
Si      -1.38870621      -1.48406787      -1.17484246       0.00000000
Si       1.23383718       0.69269967      -1.91067026       0.00000000
Si       0.85649562      -1.38621384       1.74327149       0.00000000
Si      -2.03452326       0.81472806       2.67169529       0.00000000
Si      -0.09661599      -3.43560987       1.19033791       0.00000000
Si       1.12593222      -1.25656173      -3.24749494       0.00000000
Si       3.09560499      -1.65804507       1.08612077       0.00000000
Si      -0.10314828      -3.64417074      -1.18176742       0.00000000
Si      -2.20586148      -0.55387629      -3.15147120       0.00000000
