10
Lattice="16.28999089631971 0.0 0.0 0.0 16.28999089631971 0.0 0.0 0.0 34.281931910070035" Properties=species:S:1:pos:R:3:initial_magmoms:R:1 pbc="T T T"
Si       0.33884829      -0.65674764       2.22575567       0.00000000
Si       0.90178182       2.16207396      -0.33544889       0.00000000
Si       0.70938063      -1.57881051      -1.61673681       0.00000000
Si      -2.29952898       0.44303913      -0.43037561       0.00000000
Si      -1.53899775       0.43919469       2.96202914       0.00000000
Si       0.01560582      -0.28147491      -3.44029664       0.00000000
Si      -2.22350355      -0.00964368      -2.78314592       0.00000000
Si      -3.18260988      -0.67404762       1.45190919       0.00000000
Si       3.17123946       1.71294237      -0.84940390       0.00000000
Si       0.44207802      -2.99553552       2.40443320       0.00000000
