10
Lattice="16.28999089631971 0.0 0.0 0.0 16.28999089631971 0.0 0.0 0.0 34.281931910070035" Properties=species:S:1:pos:R:3:initial_magmoms:R:1 pbc="T T T"
Si       0.77024007       1.84749777      -1.17452227       0.00000000
Si       1.47326760      -1.19849295       1.37642719       0.00000000
Si      -1.24662483       1.50275250       1.38254995       0.00000000
Si      -1.15248492      -1.54664495      -1.51553448       0.00000000
Si      -0.16566930       1.25735994      -3.28688289       0.00000000
Si      -2.29115592       0.26330179      -2.68077799       0.00000000
Si      -2.64432312      -2.58580034      -0.00796027       0.00000000
Si       2.75727798      -2.51334242      -0.19625046       0.00000000
Si       0.11635947      -2.55141215       2.74918964       0.00000000
Si      -2.59887402       0.16188839       2.75810295       0.00000000
