10
Lattice="16.28999089631971 0.0 0.0 0.0 16.28999089631971 0.0 0.0 0.0 34.281931910070035" Properties=species:S:1:pos:R:3:initial_magmoms:R:1 pbc="T T T"
Si      -1.35900954       1.35543646      -1.35266294       0.00000000
Si       1.35744570       1.35634707       1.35622827       0.00000000
Si      -1.35782037      -1.35893922       1.35663965       0.00000000
Si       1.35622395      -1.35786408      -1.36157625       0.00000000
Si      -0.00676035       2.69630057      -2.72821595       0.00000000
Si      -2.71308321       2.71294895       0.00037710       0.00000000
Si       0.00027693       2.71320959       2.71314217       0.00000000
Si       2.71415835       2.71314443      -0.00113130       0.00000000
Si      -2.71523349      -0.00170419       2.71324502       0.00000000
Si       2.71479366      -0.00209205       2.71375925       0.00000000
