10
Lattice="16.28999089631971 0.0 0.0 0.0 16.28999089631971 0.0 0.0 0.0 34.281931910070035" Properties=species:S:1:pos:R:3:initial_magmoms:R:1 pbc="T T T"
Si       0.11059281      -1.58508006       1.64632214       0.00000000
Si       0.42590205       2.06649353       0.98306923       0.00000000
Si      -2.30159781      -0.17288367      -0.52547375       0.00000000
Si       1.61718975      -0.40366410      -1.73384396       0.00000000
Si       0.26689536       3.13620896      -1.17576808       0.00000000
Si      -1.92847536      -1.57973694      -2.39490282       0.00000000
Si       1.71468540       1.83198269      -2.50971307       0.00000000
Si       0.34098228      -2.02886853      -2.90885783       0.00000000
Si      -1.58689035      -1.03710075       3.17766261       0.00000000
Si       2.29527729      -1.68369972       2.45187942       0.00000000
