10
Lattice="16.28999089631971 0.0 0.0 0.0 16.28999089631971 0.0 0.0 0.0 34.281931910070035" Properties=species:S:1:pos:R:3:initial_magmoms:R:1 pbc="T T T"
Si      -1.35342207       1.35896067       1.36267327       0.00000000
Si       1.36137159      -1.35751086       1.36188479       0.00000000
Si      -1.34311050      -1.35000117      -1.38796650       0.00000000
Si       1.37266056       1.34990343      -1.38400693       0.00000000
Si      -2.71349046       2.71666701      -0.00215976       0.00000000
Si      -2.71274112      -2.71764441       0.00020569       0.00000000
Si      -2.71160082       0.00057015       2.71897010       0.00000000
Si       2.71915938       2.71384884      -0.00181694       0.00000000
Si       0.00311139      -2.71454931       2.71938149       0.00000000
Si       0.00356751       2.71596654       2.71900439       0.00000000
