10
Lattice="16.28999089631971 0.0 0.0 0.0 16.28999089631971 0.0 0.0 0.0 34.281931910070035" Properties=species:S:1:pos:R:3:initial_magmoms:R:1 pbc="T T T"
Si       1.69802073      -0.26090064       1.57950661       0.00000000
Si      -0.82385046      -2.04792993      -0.86294527       0.00000000
Si      -1.71517410       0.97759548       1.34837770       0.00000000
Si       0.05378958       1.13337675      -2.15719177       0.00000000
Si      -2.24878563       0.72275472      -2.35510147       0.00000000
Si      -3.04456842       1.75831002      -0.42170228       0.00000000
Si       0.74984499       3.30413328      -1.61906799       0.00000000
Si       0.71400699      -2.73289185      -2.49672021       0.00000000
Si       1.56879216      -2.40948648       2.43974361       0.00000000
Si      -2.65237038      -1.60562385      -2.26949944       0.00000000
