10
Lattice="16.28999089631971 0.0 0.0 0.0 16.28999089631971 0.0 0.0 0.0 34.281931910070035" Properties=species:S:1:pos:R:3:initial_magmoms:R:1 pbc="T T T"
Si       1.37424069      -1.25429742       1.40847396       0.00000000
Si       1.36013355       1.32457248      -1.36452450       0.00000000
Si      -1.34990343      -1.39018860      -1.36260471       0.00000000
Si      -1.31026986       1.38412872       1.54196788       0.00000000
Si      -0.46226133      -1.94862609       2.86922789       0.00000000
Si      -2.36473785      -0.31223043       2.88016384       0.00000000
Si       0.00886176       2.68666083      -2.72342676       0.00000000
Si      -2.71259451       2.70487305       0.03311636       0.00000000
Si       2.73167010       2.69584839       0.02516295       0.00000000
Si      -2.70827766      -0.02979441      -2.72202120       0.00000000
