10
Lattice="16.28999089631971 0.0 0.0 0.0 16.28999089631971 0.0 0.0 0.0 34.281931910070035" Properties=species:S:1:pos:R:3:initial_magmoms:R:1 pbc="T T T"
Si       0.64301517      -0.72560547      -2.11595058       0.00000000
Si       0.56314530      -1.15460262       1.95791079       0.00000000
Si      -2.28677391       0.29452320       0.44216860       0.00000000
Si       1.05207336       2.11137948      -0.24611013       0.00000000
Si       2.90701566      -0.88990641      -1.55040124       0.00000000
Si      -0.34834536       3.24172629       1.22012892       0.00000000
Si      -2.39000364       2.63331108       0.26349108       0.00000000
Si      -0.13291011      -3.32535915       1.41978700       0.00000000
Si      -0.86439627      -0.01308087       3.61780858       0.00000000
Si       0.20287566       1.02899043      -3.59703372       0.00000000
