10
Lattice="16.28999089631971 0.0 0.0 0.0 16.28999089631971 0.0 0.0 0.0 34.281931910070035" Properties=species:S:1:pos:R:3:initial_magmoms:R:1 pbc="T T T"
Si      -1.35465190      -1.34793234       1.36444565       0.00000000
Si       1.35444745       1.36601424       1.36903943       0.00000000
Si      -1.38342004       1.30618107      -1.42088745       0.00000000
Si       1.29909240      -1.39859424      -1.43310211       0.00000000
Si       0.32489664       2.30143491      -2.67000108       0.00000000
Si       2.14615774       0.52575975      -2.91645955       0.00000000
Si      -2.25897496      -0.40220010      -2.91899641       0.00000000
Si      -0.53443411      -2.38682709      -2.80500893       0.00000000
Si       2.72261197      -2.69957880      -0.00528628       0.00000000
Si      -2.72082904      -2.70402597      -0.01153930       0.00000000
