10
Lattice="16.28999089631971 0.0 0.0 0.0 16.28999089631971 0.0 0.0 0.0 34.281931910070035" Properties=species:S:1:pos:R:3:initial_magmoms:R:1 pbc="T T T"
Si      -1.35622395       1.35786408       1.36157625       0.00000000
Si       1.35659862      -1.36049193       1.35996500       0.00000000
Si       1.35690813       1.35291920      -1.37276245       0.00000000
Si      -1.35713619      -1.36412460      -1.36880974       0.00000000
Si      -0.11635947       2.55141215      -2.74918964       0.00000000
Si       0.08620668      -2.65667094      -2.76731794       0.00000000
Si      -2.71523349       2.71330054       0.00891331       0.00000000
Si      -2.71257822      -2.71775844       0.00270827       0.00000000
Si       0.00122175       2.71421115       2.71780452       0.00000000
Si      -2.71404432      -0.00107514       2.71821590       0.00000000
