10
Lattice="16.28999089631971 0.0 0.0 0.0 16.28999089631971 0.0 0.0 0.0 34.281931910070035" Properties=species:S:1:pos:R:3:initial_magmoms:R:1 pbc="T T T"
Si      -1.38585546       1.29148749       1.33408213       0.00000000
Si      -1.36704051      -1.33635015      -1.35674250       0.00000000
Si       1.34260551       1.37938833      -1.35725672       0.00000000
Si       1.26972405      -1.31683473       1.57631839       0.00000000
Si       0.34026552       2.34906687       2.57741993       0.00000000
Si       2.13720143       0.54198459       2.79199066       0.00000000
Si      -2.33860869      -0.37243827       2.69171595       0.00000000
Si       2.68551306      -2.67675977       0.01823800       0.00000000
Si      -0.01371618      -2.69448817      -2.71691319       0.00000000
Si       2.70363568       0.02187747      -2.71746170       0.00000000
