10
Lattice="16.28999089631971 0.0 0.0 0.0 16.28999089631971 0.0 0.0 0.0 34.281931910070035" Properties=species:S:1:pos:R:3:initial_magmoms:R:1 pbc="T T T"
Si       1.26289854      -0.52453800       1.90868191       0.00000000
Si       0.46845153       1.52423901      -1.73607228       0.00000000
Si      -2.05196985       0.66529989       0.98101231       0.00000000
Si       0.36067689      -1.71431399      -1.60545805       0.00000000
Si      -1.64959056      -2.76971214      -0.99705626       0.00000000
Si      -3.25053918       0.89319699      -1.02537316       0.00000000
Si      -1.72774998       1.84793760      -2.53744717       0.00000000
Si       1.98583245      -3.07687868      -0.41721134       0.00000000
Si      -2.70337437      -1.18980531       2.25863206       0.00000000
Si      -1.68647112      -3.09313610       1.33243659       0.00000000
