10
Lattice="16.28999089631971 0.0 0.0 0.0 16.28999089631971 0.0 0.0 0.0 34.281931910070035" Properties=species:S:1:pos:R:3:initial_magmoms:R:1 pbc="T T T"
Si       2.01026745       1.05539815      -0.60840179       0.00000000
Si      -0.03688056      -0.32342396       2.32949286       0.00000000
Si       0.29255211      -2.21565407      -0.74916348       0.00000000
Si      -1.78689897       1.41910824      -0.74388406       0.00000000
Si       1.64959056       2.76971214       0.99705626       0.00000000
Si      -0.17337447      -1.57731413      -3.07464535       0.00000000
Si       2.78071929      -2.39064125      -0.16301068       0.00000000
Si      -1.55053107      -2.04690596       2.64584670       0.00000000
Si       3.63542301      -0.30716654       0.57984492       0.00000000
Si      -1.05378381       1.57990683       3.25568833       0.00000000
