10
Lattice="16.28999089631971 0.0 0.0 0.0 16.28999089631971 0.0 0.0 0.0 34.281931910070035" Properties=species:S:1:pos:R:3:initial_magmoms:R:1 pbc="T T T"
Si       2.04598232       0.83466702      -0.71529291       0.00000000
Si       0.38037217      -2.31049934      -0.23709397       0.00000000
Si      -1.60901217       0.57076902      -1.72911305       0.00000000
Si       0.30397060       0.57648681       2.36428904       0.00000000
Si       1.39222552      -2.08124135      -2.37292809       0.00000000
Si       0.29028358      -1.64383530       3.12301718       0.00000000
Si       1.67301462       3.15742554      -0.58889536       0.00000000
Si      -1.71768276      -3.31990919       0.07483750       0.00000000
Si      -1.83314628      -2.34193904       2.31968822       0.00000000
Si       1.71116906      -2.90612690       1.69993911       0.00000000
