10
Lattice="16.28999089631971 0.0 0.0 0.0 16.28999089631971 0.0 0.0 0.0 34.281931910070035" Properties=species:S:1:pos:R:3:initial_magmoms:R:1 pbc="T T T"
Si      -0.75204414       1.00462059       1.94731767       0.00000000
Si       0.24311196      -2.30042493       0.32564425       0.00000000
Si       2.26387410       0.42373548      -0.52348539       0.00000000
Si      -1.83501963       0.49326120      -1.48694535       0.00000000
Si       1.10291445      -2.64978027      -1.88951830       0.00000000
Si      -0.81171441       3.30825465       1.45262911       0.00000000
Si      -2.99678985       0.35394912       2.18616002       0.00000000
Si      -3.53564676       1.32988302       0.04501220       0.00000000
Si      -1.90263942      -3.22797753       0.59050661       0.00000000
Si       3.52513875       0.28623159       1.46586195       0.00000000
