10
Lattice="16.28999089631971 0.0 0.0 0.0 16.28999089631971 0.0 0.0 0.0 34.281931910070035" Properties=species:S:1:pos:R:3:initial_magmoms:R:1 pbc="T T T"
Si       0.75204414      -1.00462059      -1.94731767       0.00000000
Si       1.00279611      -0.20709477       2.08177148       0.00000000
Si      -2.24474571      -0.65067147       0.23884235       0.00000000
Si      -0.05967027       2.30363406      -0.49468855       0.00000000
Si      -2.78360262       0.32526243      -1.90230546       0.00000000
Si      -0.03393207       1.78533513       3.03405552       0.00000000
Si      -2.32367076       2.46793500      -1.06023790       0.00000000
Si       3.26133198       0.30304287       1.50641749       0.00000000
Si       0.92028726       3.17536083       1.45019509       0.00000000
Si      -1.08297549      -0.51135939      -3.43426301       0.00000000
