10
Lattice="16.28999089631971 0.0 0.0 0.0 16.28999089631971 0.0 0.0 0.0 34.281931910070035" Properties=species:S:1:pos:R:3:initial_magmoms:R:1 pbc="T T T"
Si      -1.00279611       0.20709477      -2.08177148       0.00000000
Si       0.00177561      -2.00098215       1.25660492       0.00000000
Si       2.25853587       0.51013764      -0.57535398       0.00000000
Si      -1.03672818       1.99242990       0.95228404       0.00000000
Si      -0.08250885       3.38245560      -0.63157638       0.00000000
Si      -0.18565713      -1.03272084       3.47176747       0.00000000
Si       1.90534276      -3.09223296       0.38995719       0.00000000
Si       2.20817044       2.86329330      -0.82214975       0.00000000
Si      -1.06246638       2.51072883      -2.57646003       0.00000000
Si       3.48438932       0.17915742       1.40017773       0.00000000
