10
Lattice="16.28999089631971 0.0 0.0 0.0 16.28999089631971 0.0 0.0 0.0 34.281931910070035" Properties=species:S:1:pos:R:3:initial_magmoms:R:1 pbc="T T T"
Si       2.27675556      -0.43285788       0.03757302       0.00000000
Si      -1.25817444      -1.50954543       1.25831901       0.00000000
Si      -0.77300937       2.19895452       0.14374422       0.00000000
Si      -0.99838152      -0.40307976      -2.18753130       0.00000000
Si      -2.44165923       1.41046965      -1.65208150       0.00000000
Si       0.36320184      -3.26445084       0.94556477       0.00000000
Si       2.42667243      -2.16075447       1.62732994       0.00000000
Si       3.33268965       1.62269577       0.35214420       0.00000000
Si      -1.71007533      -0.38692008       3.30844825       0.00000000
Si      -3.18806703      -1.96910262      -0.09962335       0.00000000
