10
Lattice="16.28999089631971 0.0 0.0 0.0 16.28999089631971 0.0 0.0 0.0 34.281931910070035" Properties=species:S:1:pos:R:3:initial_magmoms:R:1 pbc="T T T"
Si      -0.61411671       2.22176052       0.07394617       0.00000000
Si      -0.95421933      -1.39002570       1.58386042       0.00000000
Si      -0.97995753      -0.87172677      -1.94488365       0.00000000
Si       2.29067929      -0.51916230      -0.19057337       0.00000000
Si       2.32286508       0.47840472      -2.32616751       0.00000000
Si      -0.33484095      -0.08501751       3.40124949       0.00000000
Si       0.08250885      -3.38245560       0.63157638       0.00000000
Si       0.27585486       0.29709702      -3.51496273       0.00000000
Si      -2.83489983       2.12955912      -0.64059254       0.00000000
Si      -0.92028726      -3.17536083      -1.45019509       0.00000000
