10
Lattice="16.28999089631971 0.0 0.0 0.0 16.28999089631971 0.0 0.0 0.0 34.281931910070035" Properties=species:S:1:pos:R:3:initial_magmoms:R:1 pbc="T T T"
Si       1.35671558       1.35651717      -1.35787380       0.00000000
Si      -1.35806472      -1.35795069      -1.35790808       0.00000000
Si       1.35656006      -1.36086660       1.35965646       0.00000000
Si      -1.36228383       1.35923760       1.36071920       0.00000000
Si       2.71397494      -0.00114030      -2.71547334       0.00000000
Si       2.71561535       2.71432125       0.00000000       0.00000000
Si       2.71592323      -2.71406061      -0.00133700       0.00000000
Si      -0.00078192       2.71427238      -2.71571332       0.00000000
Si      -2.71560816       2.71528236      -0.00058279       0.00000000
Si      -0.00024435      -2.71598283      -2.71537050       0.00000000
