10
Lattice="16.28999089631971 0.0 0.0 0.0 16.28999089631971 0.0 0.0 0.0 34.281931910070035" Properties=species:S:1:pos:R:3:initial_magmoms:R:1 pbc="T T T"
Si      -0.36849609      -0.56604492      -2.22640703       0.00000000
Si      -0.06279795       2.31508823      -0.22423824       0.00000000
Si      -1.53806922      -1.04938551       1.46586195       0.00000000
Si       2.28310866      -0.74808567       0.14874939       0.00000000
Si       0.36106785      -1.87351290       2.90412692       0.00000000
Si       0.55799766      -2.67020793      -2.27474458       0.00000000
Si       1.96595865       2.69930906       1.21433527       0.00000000
Si       3.30936467       1.40280588      -0.25546910       0.00000000
Si       0.97252929       0.96448203      -3.40406061       0.00000000
Si      -2.36990178       0.70354881       3.01259501       0.00000000
