10
Lattice="16.28999089631971 0.0 0.0 0.0 16.28999089631971 0.0 0.0 0.0 34.281931910070035" Properties=species:S:1:pos:R:3:initial_magmoms:R:1 pbc="T T T"
Si      -0.39861793      -1.91427048       1.29784610       0.00000000
Si       1.26874828       1.51252650       1.28992697       0.00000000
Si      -2.04159868       1.11531114      -0.45379019       0.00000000
Si       0.75675195      -0.97037901      -2.03381103       0.00000000
Si      -1.37527252      -0.97283880      -2.95695541       0.00000000
Si      -2.21839405       2.13907248       1.70388153       0.00000000
Si      -0.17138383       2.32038018       2.89267675       0.00000000
Si       0.41114168      -3.74912721      -0.00239974       0.00000000
Si       1.71939484       3.43865610       0.05344556       0.00000000
Si       1.87729381      -2.99584503      -1.65842366       0.00000000
