10
Lattice="16.28999089631971 0.0 0.0 0.0 16.28999089631971 0.0 0.0 0.0 34.281931910070035" Properties=species:S:1:pos:R:3:initial_magmoms:R:1 pbc="T T T"
Si       1.22585345      -0.33098022       1.97553171       0.00000000
Si      -0.05036542       2.35315566      -0.24679577       0.00000000
Si      -2.25853587      -0.51013764       0.57535398       0.00000000
Si       1.01585092      -1.02143187      -1.98787321       0.00000000
Si      -3.26133198      -0.30304287      -1.50641749       0.00000000
Si       1.60912457      -2.65626369       1.92421163       0.00000000
Si      -2.34104472       2.87231796      -0.05622240       0.00000000
Si       3.40643285       0.36536841       1.46884448       0.00000000
Si      -0.35319310      -3.60237060       0.96531118       0.00000000
Si      -2.25676026      -2.51111979       1.83195890       0.00000000
