10
Lattice="16.28999089631971 0.0 0.0 0.0 16.28999089631971 0.0 0.0 0.0 34.281931910070035" Properties=species:S:1:pos:R:3:initial_magmoms:R:1 pbc="T T T"
Si       0.83820195      -1.35327546       1.72392623       0.00000000
Si       0.90179811      -1.27369881      -1.76373782       0.00000000
Si      -2.44694438      -0.31100868      -0.14446414       0.00000000
Si       0.54737658       2.45645055      -0.16088520       0.00000000
Si      -2.43117566       1.46148993       1.58739146       0.00000000
Si      -0.96615990       3.01083183      -1.92698847       0.00000000
Si       2.32139016      -0.02223585       2.94548608       0.00000000
Si       0.72386244      -3.56074639      -1.28163074       0.00000000
Si       3.21325137      -0.72721818      -2.00422571       0.00000000
Si      -0.59764915       2.44972278       2.95929828       0.00000000
