10
Lattice="16.28999089631971 0.0 0.0 0.0 16.28999089631971 0.0 0.0 0.0 34.281931910070035" Properties=species:S:1:pos:R:3:initial_magmoms:R:1 pbc="T T T"
Si      -1.35178818       1.28953269      -1.47422674       0.00000000
Si      -1.79213132      -0.96368382       1.32259767       0.00000000
Si       1.34063442      -1.41095835      -1.45228629       0.00000000
Si       1.25157699       1.66245966       1.28142505       0.00000000
Si      -2.59026687       2.70484047      -0.09835492       0.00000000
Si      -3.40702811       0.90381807       1.31125035       0.00000000
Si       2.67564879      -2.72756502       0.02903681       0.00000000
Si      -2.69865174      -2.74476726      -0.06942095       0.00000000
Si      -0.02029734       2.64953592      -2.83388320       0.00000000
Si      -0.19595241       2.51076141       2.96521736       0.00000000
