10
Lattice="16.28999089631971 0.0 0.0 0.0 16.28999089631971 0.0 0.0 0.0 34.281931910070035" Properties=species:S:1:pos:R:3:initial_magmoms:R:1 pbc="T T T"
Si       2.15557425      -0.86035635      -0.13188267       0.00000000
Si      -1.58092332      -1.13124276      -1.39462405       0.00000000
Si       0.37551708       2.03357844      -1.21865480       0.00000000
Si      -0.42049214      -0.33995601       2.37299665       0.00000000
Si      -2.39556572       0.84509262       2.57080351       0.00000000
Si       1.87587495      -3.11903001       0.32101619       0.00000000
Si      -0.30328722       3.64228110       0.30346383       0.00000000
Si       2.83393872      -0.36748611      -2.33905752       0.00000000
Si       3.53550015       0.15851799       1.52756946       0.00000000
Si      -1.54873754      -0.13367574      -3.53021819       0.00000000
