10
Lattice="16.28999089631971 0.0 0.0 0.0 16.28999089631971 0.0 0.0 0.0 34.281931910070035" Properties=species:S:1:pos:R:3:initial_magmoms:R:1 pbc="T T T"
Si      -1.35671558      -1.35651717       1.35787380       0.00000000
Si       1.35725936      -1.35765747      -1.35759954       0.00000000
Si      -1.35749750       1.35775521      -1.35783952       0.00000000
Si       1.35889976       1.35780408       1.35787380       0.00000000
Si       2.71300601      -0.00228060       2.71444489       0.00000000
Si       0.00007852      -2.71529865      -2.71382781       0.00000000
Si      -2.71478030      -2.71446786      -0.00003428       0.00000000
Si       2.71489565      -2.71482624      -0.00023997       0.00000000
Si       2.71603595      -0.00159642      -2.71396494       0.00000000
Si      -2.71523642       2.71496076      -0.00010285       0.00000000
