10
Lattice="16.28999089631971 0.0 0.0 0.0 16.28999089631971 0.0 0.0 0.0 34.281931910070035" Properties=species:S:1:pos:R:3:initial_magmoms:R:1 pbc="T T T"
Si       1.35410625      -1.36008468       1.35657109       0.00000000
Si       1.35646830       1.35707811      -1.35783952       0.00000000
Si      -1.35889976      -1.35780408      -1.35787380       0.00000000
Si      -1.36047110       1.35923760       1.36250186       0.00000000
Si       2.72114676       0.00288333       2.70299471       0.00000000
Si       2.71428867      -2.71275741      -0.00085705       0.00000000
Si       2.71378368       0.00006516      -2.71578188       0.00000000
Si       2.71461447       2.71523090      -0.00034282       0.00000000
Si      -2.71561535      -2.71432125       0.00000000       0.00000000
Si      -0.00164040      -2.71546155      -2.71547334       0.00000000
