10
Lattice="16.28999089631971 0.0 0.0 0.0 16.28999089631971 0.0 0.0 0.0 34.281931910070035" Properties=species:S:1:pos:R:3:initial_magmoms:R:1 pbc="T T T"
Si      -2.09805493      -1.00940985       0.31193147       0.00000000
Si      -0.38037217       2.31049934       0.23709397       0.00000000
Si       1.01185335       0.22925799      -2.13583412       0.00000000
Si       1.33079689      -0.59562756       1.93703308       0.00000000
Si      -2.21351845      -0.03143970       2.55678219       0.00000000
Si      -0.09008859       0.66666403       3.36011115       0.00000000
Si       1.66561015       3.14516636      -0.47819894       0.00000000
Si      -1.52984344      -3.36404790       0.13795057       0.00000000
Si       3.53718454      -0.12396690       1.14131471       0.00000000
Si      -0.69048490       0.27991337      -3.71832326       0.00000000
