10
Lattice="16.28999089631971 0.0 0.0 0.0 16.28999089631971 0.0 0.0 0.0 34.376317263855086" Properties=species:S:1:pos:R:3:initial_magmoms:R:1 pbc="T T T"
Si       1.35288450      -1.36009219      -1.36319362       0.00000000
Si      -1.36181142       1.35592552      -1.36205920       0.00000000
Si       1.35892809       1.34316068       1.38220374       0.00000000
Si      -1.36901160      -1.35675274       1.36831570       0.00000000
Si       2.70666495      -2.71076125      -0.00206258       0.00000000
Si      -0.09104481       2.63707375       2.78441450       0.00000000
Si       2.71476108       2.71298515      -0.00171882       0.00000000
Si       2.71200807      -0.00044188      -2.71865257       0.00000000
Si      -2.71658556       2.71493995      -0.00106567       0.00000000
Si      -2.71884987      -2.71416586      -0.00068753       0.00000000
