10
Lattice="16.28999089631971 0.0 0.0 0.0 16.28999089631971 0.0 0.0 0.0 34.376317263855086" Properties=species:S:1:pos:R:3:initial_magmoms:R:1 pbc="T T T"
Si       1.54724049       1.48228900      -1.23988570       0.00000000
Si      -2.46596391      -0.32032167       0.09467243       0.00000000
Si      -0.97226865      -1.96820082      -1.17910834       0.00000000
Si       2.41901613      -0.63643634      -0.44531106       0.00000000
Si      -1.57672539       1.55619673       1.30874151       0.00000000
Si       0.73225179      -0.72250452      -2.49390008       0.00000000
Si       2.24932320      -0.60042611       2.00864372       0.00000000
Si      -0.52118226       3.02276914      -1.35054313       0.00000000
Si       2.00407725       2.95659916       0.76026706       0.00000000
Si       0.23208363      -0.70046415       3.60387761       0.00000000
