10
Lattice="16.28999089631971 0.0 0.0 0.0 16.28999089631971 0.0 0.0 0.0 34.376317263855086" Properties=species:S:1:pos:R:3:initial_magmoms:R:1 pbc="T T T"
Si      -0.34150356      -2.23761788      -0.56872211       0.00000000
Si      -2.17124523       0.86358177       0.28446418       0.00000000
Si       0.95084730       0.63174249       2.06213330       0.00000000
Si       1.77176556       0.46770219      -1.51781838       0.00000000
Si       0.88252704      -1.40881621      -2.73188746       0.00000000
Si      -1.45546263       3.09527919       0.49381607       0.00000000
Si       1.75601313      -3.27701762      -0.07146840       0.00000000
Si       0.02202408       2.87402841       2.38014878       0.00000000
Si       3.26417391       0.28224054       2.06409275       0.00000000
Si      -3.54976856       0.17021421      -1.57450496       0.00000000
