10
Lattice="16.28999089631971 0.0 0.0 0.0 16.28999089631971 0.0 0.0 0.0 34.376317263855086" Properties=species:S:1:pos:R:3:initial_magmoms:R:1 pbc="T T T"
Si      -1.77176556      -0.46770219       1.51781838       0.00000000
Si       0.23438052       2.32930710      -0.53101127       0.00000000
Si      -0.88923852      -1.87651840      -1.21406908       0.00000000
Si       1.57672539      -1.55619673      -1.30874151       0.00000000
Si       1.05554313       1.46657241      -2.65928464       0.00000000
Si      -2.11326912      -2.70532007       0.94909627       0.00000000
Si      -2.25424278      -0.57475681      -2.81751891       0.00000000
Si       2.15001936       2.84829021       0.80265308       0.00000000
Si      -0.82091826       0.16404030       3.57995168       0.00000000
Si       1.80880902      -2.25666089       2.29513610       0.00000000
