10
Lattice="16.28999089631971 0.0 0.0 0.0 16.28999089631971 0.0 0.0 0.0 34.376317263855086" Properties=species:S:1:pos:R:3:initial_magmoms:R:1 pbc="T T T"
Si      -1.20881574      -1.60720398      -1.26255487       0.00000000
Si      -1.41092577       1.24514244       1.58565665       0.00000000
Si       1.30846167      -1.45718937       1.57258676       0.00000000
Si       0.58969800       1.43446482      -2.15386453       0.00000000
Si       2.59885773       2.55736710       0.23489351       0.00000000
Si      -2.86565535       2.60231121       0.24203691       0.00000000
Si      -0.05629824       2.60713305       2.96767475       0.00000000
Si       2.69071704      -2.89031841       0.12609928       0.00000000
Si       2.66377338      -0.11135844       2.97149052       0.00000000
Si      -2.76503202      -2.89497735       0.07879056       0.00000000
