10
Lattice="16.28999089631971 0.0 0.0 0.0 16.28999089631971 0.0 0.0 0.0 34.376317263855086" Properties=species:S:1:pos:R:3:initial_magmoms:R:1 pbc="T T T"
Si       1.35511623      -1.35384561       1.35934347       0.00000000
Si      -1.35786924      -1.35591444      -1.35710901       0.00000000
Si       1.35755973       1.35912357      -1.35655899       0.00000000
Si      -1.35589815       1.36233270       1.36353739       0.00000000
Si       2.69780319       0.00428427       2.72820919       0.00000000
Si       0.00004887      -2.71349046      -2.71411489       0.00000000
Si       2.71409319      -2.71376739       0.00127192       0.00000000
Si       2.71366965       2.71529865      -0.00034376       0.00000000
Si      -2.71502009       0.00158013      -2.71442428       0.00000000
Si      -2.71632329      -2.71342530      -0.00013751       0.00000000
