10
Lattice="16.28999089631971 0.0 0.0 0.0 16.28999089631971 0.0 0.0 0.0 34.376317263855086" Properties=species:S:1:pos:R:3:initial_magmoms:R:1 pbc="T T T"
Si       0.27777708       2.33429184       0.15465914       0.00000000
Si       1.73853396      -1.56094038       1.06621645       0.00000000
Si       1.36453185      -0.54737658      -2.16949059       0.00000000
Si      -1.14886854       1.12259277       2.16340598       0.00000000
Si      -1.11909042       1.66272030      -1.93098757       0.00000000
Si       1.43946585      -2.65126266      -1.14373509       0.00000000
Si      -1.62704520      -1.19237913       2.64350590       0.00000000
Si       0.01989009      -2.92037346       2.20792334       0.00000000
Si      -3.15151227       2.04361308      -0.69550204       0.00000000
Si      -2.02554747       0.11300373      -3.42635821       0.00000000
