10
Lattice="16.28999089631971 0.0 0.0 0.0 16.28999089631971 0.0 0.0 0.0 34.376317263855086" Properties=species:S:1:pos:R:3:initial_magmoms:R:1 pbc="T T T"
Si       1.58918724       0.73901214       1.51554955       0.00000000
Si      -0.58705902       1.91370033      -1.26539295       0.00000000
Si      -1.81755675      -1.17110439       1.01630201       0.00000000
Si       0.67421052      -1.38963474      -1.87014146       0.00000000
Si      -2.59462233       0.85006107      -1.88564518       0.00000000
Si      -2.71376739      -1.52199099      -1.17463942       0.00000000
Si       2.99431377       1.95056460       0.06834016       0.00000000
Si      -0.90290583      -3.10648671      -1.56927976       0.00000000
Si       2.90286171      -1.98273735      -1.45130017       0.00000000
Si      -2.72284581       0.17954838       2.74567237       0.00000000
