10
Lattice="16.28999089631971 0.0 0.0 0.0 16.28999089631971 0.0 0.0 0.0 34.376317263855086" Properties=species:S:1:pos:R:3:initial_magmoms:R:1 pbc="T T T"
Si      -1.35578412      -1.35783666      -1.35628398       0.00000000
Si       1.35711990       1.35726809      -1.35645586       0.00000000
Si      -1.35744570       1.35723133       1.35738402       0.00000000
Si       1.35777150      -1.35733167       1.35738402       0.00000000
Si       2.71331127      -0.00192222       2.71335861       0.00000000
Si      -0.00153126      -2.71401174      -2.71421802       0.00000000
Si      -0.00138465       2.71409549       2.71449303       0.00000000
Si       2.71456560      -2.71438641       0.00020626       0.00000000
Si      -2.71484579      -2.71487511      -0.00006875       0.00000000
Si       2.71544526      -0.00021177      -2.71476804       0.00000000
