10
Lattice="16.28999089631971 0.0 0.0 0.0 16.28999089631971 0.0 0.0 0.0 34.376317263855086" Properties=species:S:1:pos:R:3:initial_magmoms:R:1 pbc="T T T"
Si       1.35553977       1.35540945       1.35597459       0.00000000
Si       1.35679410      -1.35705474      -1.35717776       0.00000000
Si      -1.35777150       1.35733167      -1.35738402       0.00000000
Si      -1.35943308      -1.35894438       1.35772779       0.00000000
Si       2.70932022       0.00474039       2.71710563       0.00000000
Si      -2.71355562      -0.00050499      -2.71366800       0.00000000
Si       2.71386513       0.00034209      -2.71428678       0.00000000
Si      -0.00070047      -2.71393029      -2.71425240       0.00000000
Si      -0.00065160       2.71459976      -2.71383988       0.00000000
Si       2.71459818      -2.71467963       0.00006875       0.00000000
