10
Lattice="16.28999089631971 0.0 0.0 0.0 16.28999089631971 0.0 0.0 0.0 34.376317263855086" Properties=species:S:1:pos:R:3:initial_magmoms:R:1 pbc="T T T"
Si      -1.35679410       1.35705474       1.35717776       0.00000000
Si      -1.35749457      -1.35687555      -1.35707464       0.00000000
Si       1.35707103       1.35739683      -1.35710901       0.00000000
Si       1.35780408      -1.35762489       1.35724652       0.00000000
Si      -0.00125433       2.71246419       2.71315236       0.00000000
Si      -2.71456560       2.71438641      -0.00020626       0.00000000
Si       0.00087966       2.71417464      -2.71497430       0.00000000
Si      -2.71484253      -2.71495656      -0.00013751       0.00000000
Si       2.71523349       2.71494027      -0.00027501       0.00000000
Si       2.71510317      -0.00045612       2.71528369       0.00000000
