10
Lattice="16.28999089631971 0.0 0.0 0.0 16.28999089631971 0.0 0.0 0.0 34.376317263855086" Properties=species:S:1:pos:R:3:initial_magmoms:R:1 pbc="T T T"
Si      -1.99073152      -1.29825273       0.14503376       0.00000000
Si       1.35695211      -1.75843220       1.07491367       0.00000000
Si       0.15328727       1.53062469       1.97247981       0.00000000
Si       1.18923027       0.26728632      -2.19118206       0.00000000
Si      -1.47060811       1.87483239      -0.94108659       0.00000000
Si      -1.35936370      -3.05335592       1.52049974       0.00000000
Si      -3.48792913       0.07592769       1.24387336       0.00000000
Si       1.90501287       2.49898374      -1.98183017       0.00000000
Si       0.47120291      -3.74861312       0.12117659       0.00000000
Si       2.46499791       2.02473297       2.11108520       0.00000000
