10
Lattice="16.28999089631971 0.0 0.0 0.0 16.28999089631971 0.0 0.0 0.0 34.376317263855086" Properties=species:S:1:pos:R:3:initial_magmoms:R:1 pbc="T T T"
Si      -0.86897376      -1.66312496       1.61105874       0.00000000
Si      -1.74602736       1.85421902       0.13441148       0.00000000
Si       1.83065391       0.95046611       1.61043996       0.00000000
Si      -0.57085047      -1.27859951      -2.33026872       0.00000000
Si       1.28650275       1.86197306      -1.96347321       0.00000000
Si      -2.11517505      -0.31169027       3.03279182       0.00000000
Si      -2.73093705      -2.51230637       0.22361807       0.00000000
Si      -1.95747156       2.25296564      -2.34102851       0.00000000
Si      -3.43214010       0.91416385       1.48842116       0.00000000
Si       0.60437529       2.39310851       3.02230704       0.00000000
