10
Lattice="16.28999089631971 0.0 0.0 0.0 16.28999089631971 0.0 0.0 0.0 34.376317263855086" Properties=species:S:1:pos:R:3:initial_magmoms:R:1 pbc="T T T"
Si       0.52608555      -1.73749696       1.47684179       0.00000000
Si       2.23834374       0.74345768      -0.32612830       0.00000000
Si      -1.10995173      -0.34783385      -2.10506934       0.00000000
Si      -0.86053554       1.79406820       1.46608200       0.00000000
Si       2.38343877       1.40307562       1.84363730       0.00000000
Si       0.45949203      -1.87228042      -3.11208974       0.00000000
Si       2.27092374      -2.89457566       0.40777210       0.00000000
Si      -1.36283769      -3.16124296       1.68258417       0.00000000
Si      -1.44788778       1.84104856      -3.07197256       0.00000000
Si       3.74195961      -1.06815715      -0.07404663       0.00000000
