10
Lattice="16.28999089631971 0.0 0.0 0.0 16.28999089631971 0.0 0.0 0.0 34.376317263855086" Properties=species:S:1:pos:R:3:initial_magmoms:R:1 pbc="T T T"
Si       1.82614158       1.50174252       0.40680957       0.00000000
Si       0.86053554      -1.79406820      -1.46608200       0.00000000
Si      -1.91791944       0.96409107      -1.22685707       0.00000000
Si       0.21144420      -0.39874662       2.47543999       0.00000000
Si       3.24397431      -0.39099258       0.37755530       0.00000000
Si       3.09887928      -1.05061052      -1.79221030       0.00000000
Si       1.29819897       3.33905904      -1.12575627       0.00000000
Si       1.95747156      -2.25296564       2.34102851       0.00000000
Si       1.38662109      -3.53156516       0.01075979       0.00000000
Si      -3.58321356      -0.73788813      -1.04404372       0.00000000
