10
Lattice="16.28999089631971 0.0 0.0 0.0 16.28999089631971 0.0 0.0 0.0 34.376317263855086" Properties=species:S:1:pos:R:3:initial_magmoms:R:1 pbc="T T T"
Si       1.35531171       1.34583093       1.39890376       0.00000000
Si      -1.36207206      -1.36702422       1.39381606       0.00000000
Si       1.38225537      -1.43312904      -1.44648749       0.00000000
Si      -1.30846167       1.45718937      -1.57258676       0.00000000
Si      -2.51727741      -0.15001461      -2.83514164       0.00000000
Si       2.70798444       2.68648164       0.03152654       0.00000000
Si      -2.71938744       2.70233181       0.01306988       0.00000000
Si       2.70316260      -2.72968272       0.03288440       0.00000000
Si      -2.71735119      -2.73974994       0.00318325       0.00000000
Si      -0.00443088       2.70427032       2.75735345       0.00000000
