10
Lattice="16.28999089631971 0.0 0.0 0.0 16.28999089631971 0.0 0.0 0.0 34.376317263855086" Properties=species:S:1:pos:R:3:initial_magmoms:R:1 pbc="T T T"
Si       1.46347731      -1.27887903      -1.20705630       0.00000000
Si       0.69307434       1.61464851       1.51393386       0.00000000
Si      -1.29340971       1.38178296      -1.40561402       0.00000000
Si      -1.35853713      -1.61508834       1.10368666       0.00000000
Si      -1.58063499       1.94212638       2.15367748       0.00000000
Si      -0.04079016      -2.52216441      -2.54137380       0.00000000
Si      -1.81537389      -3.08939850      -0.89646610       0.00000000
Si      -2.21410422       2.96448678       0.08968786       0.00000000
Si      -2.78932041      -0.16720056       2.45481419       0.00000000
Si       2.80904760       0.27935721      -2.44917647       0.00000000
