10
Lattice="16.28999089631971 0.0 0.0 0.0 16.28999089631971 0.0 0.0 0.0 34.376317263855086" Properties=species:S:1:pos:R:3:initial_magmoms:R:1 pbc="T T T"
Si      -1.53236772      -1.75379769       0.07129652       0.00000000
Si       2.14738038      -0.92519055       0.22282741       0.00000000
Si      -0.40241187       1.09592604       2.05494864       0.00000000
Si      -0.16798248       1.16015751      -2.05343608       0.00000000
Si       0.61442622      -0.58731966      -3.39504137       0.00000000
Si      -1.61541414      -2.27524059       2.34611621       0.00000000
Si       2.60964171      -1.22508945      -2.23982458       0.00000000
Si      -3.70134864      -0.86817555      -0.44434853       0.00000000
Si       1.42355052       2.92418532      -2.09235010       0.00000000
Si      -1.93319946      -0.21569589       3.34897708       0.00000000
