10
Lattice="16.28999089631971 0.0 0.0 0.0 16.28999089631971 0.0 0.0 0.0 34.376317263855086" Properties=species:S:1:pos:R:3:initial_magmoms:R:1 pbc="T T T"
Si       1.53236772       1.75379769      -0.07129652       0.00000000
Si      -0.08304642      -0.52144290       2.27481969       0.00000000
Si       0.24128748      -2.31614478      -0.55589974       0.00000000
Si      -2.16898092       0.88562214      -0.51564505       0.00000000
Si      -3.17102769      -1.24014141       0.08666274       0.00000000
Si      -2.21739480      -1.57441221       2.24934682       0.00000000
Si      -1.95748785      -2.71800605      -1.31376045       0.00000000
Si      -0.40083174       1.53810180       3.27768055       0.00000000
Si       1.12995585       2.84972373       1.98365212       0.00000000
Si       3.67974810       0.82860714       0.15153089       0.00000000
