10
Lattice="16.28999089631971 0.0 0.0 0.0 16.28999089631971 0.0 0.0 0.0 34.376317263855086" Properties=species:S:1:pos:R:3:initial_magmoms:R:1 pbc="T T T"
Si       1.35729909       1.35716877       1.35803717       0.00000000
Si      -1.35780408       1.35762489      -1.35724652       0.00000000
Si       1.35803214      -1.35803214      -1.35793404       0.00000000
Si      -1.35868374      -1.35904212       1.35649024       0.00000000
Si       0.00141723      -2.71093293       2.71411489       0.00000000
Si      -2.71459818       2.71467963      -0.00006875       0.00000000
Si      -0.00073305       2.71502172      -2.71435553       0.00000000
Si      -2.71529865       0.00074934      -2.71432115       0.00000000
Si      -2.71479366      -2.71521720       0.00027501       0.00000000
Si      -2.71200807      -0.00177561       2.71820568       0.00000000
