10
Lattice="16.28999089631971 0.0 0.0 0.0 16.28999089631971 0.0 0.0 0.0 34.376317263855086" Properties=species:S:1:pos:R:3:initial_magmoms:R:1 pbc="T T T"
Si      -0.80834238      -0.49168107      -2.12487011       0.00000000
Si      -1.83861972       0.77752170       1.20502810       0.00000000
Si       1.36475991       1.85090238      -0.60206716       0.00000000
Si       1.13251338      -1.75749552       1.15466677       0.00000000
Si       2.50139466       1.34058555       1.43149940       0.00000000
Si      -1.58641794       1.72048464      -2.48908740       0.00000000
Si       1.68243120      -0.42275808       2.99679151       0.00000000
Si       1.29832929      -1.04239710      -3.06049086       0.00000000
Si      -2.87888283       2.01212451      -0.50062259       0.00000000
Si      -2.65043187      -1.89679131      -1.71149466       0.00000000
