10
Lattice="16.28999089631971 0.0 0.0 0.0 16.28999089631971 0.0 0.0 0.0 34.376317263855086" Properties=species:S:1:pos:R:3:initial_magmoms:R:1 pbc="T T T"
Si       0.48698955      -0.75914658       2.16825996       0.00000000
Si      -2.24531586      -0.38864682       0.66160697       0.00000000
Si       0.29515851      -1.33810947      -2.02548812       0.00000000
Si       1.59169590       1.96250517      -0.20612051       0.00000000
Si      -3.15753957       0.88943400      -1.26721489       0.00000000
Si       3.21390297       0.68551578      -1.40331081       0.00000000
Si       1.21774266       1.32328557       3.28793987       0.00000000
Si       2.05861617      -0.31324041      -3.17733603       0.00000000
Si       0.43981371       3.36059442      -1.72696402       0.00000000
Si       2.39469516      -2.48613093       1.79691986       0.00000000
