10
Lattice="16.28999089631971 0.0 0.0 0.0 16.28999089631971 0.0 0.0 0.0 34.376317263855086" Properties=species:S:1:pos:R:3:initial_magmoms:R:1 pbc="T T T"
Si      -1.34812782      -1.34581464       1.38069805       0.00000000
Si       1.36857177       1.36399428       1.37791357       0.00000000
Si       1.35034326      -1.43409015      -1.39165035       0.00000000
Si      -1.47054717       1.37577195      -1.39615709       0.00000000
Si      -2.71467963      -2.69257410       0.00083191       0.00000000
Si       2.62363482      -0.05216058      -2.79384191       0.00000000
Si       2.73326652      -2.70282051       0.02101425       0.00000000
Si       2.72008791       2.71837746      -0.00163631       0.00000000
Si      -2.71674846       2.72720664       0.02557599       0.00000000
Si      -2.70671382       0.00731421       2.74055717       0.00000000
