10
Lattice="16.28999089631971 0.0 0.0 0.0 16.28999089631971 0.0 0.0 0.0 34.376317263855086" Properties=species:S:1:pos:R:3:initial_magmoms:R:1 pbc="T T T"
Si      -1.72796175      -1.01330316      -1.32628860       0.00000000
Si       1.35614250      -1.30196196       1.49697945       0.00000000
Si       1.55621628       1.28777337      -1.34134544       0.00000000
Si      -1.34803008       1.43426934       1.50713766       0.00000000
Si      -3.40333124       0.84624921      -1.02213946       0.00000000
Si      -2.71243813      -2.59224073       0.12913815       0.00000000
Si       2.74014090      -2.77083940      -0.00720528       0.00000000
Si      -0.00338832      -2.64542758       2.89194368       0.00000000
Si      -2.68923628       2.85472476       0.09425648       0.00000000
Si       2.71142163       0.07076376       2.88761226       0.00000000
