10
Lattice="16.28999089631971 0.0 0.0 0.0 16.28999089631971 0.0 0.0 0.0 34.376317263855086" Properties=species:S:1:pos:R:3:initial_magmoms:R:1 pbc="T T T"
Si       1.10024289       0.48694068       2.02490372       0.00000000
Si      -1.26583074      -1.90806399       0.70842754       0.00000000
Si      -1.72291185       2.06122373       0.04259228       0.00000000
Si       1.85306895      -0.46778364      -1.91713391       0.00000000
Si      -1.55321892       2.02521349      -2.41136250       0.00000000
Si       0.38918439       0.77607189      -3.45275924       0.00000000
Si       1.68534711      -1.77764625       2.59544778       0.00000000
Si       2.62400949      -2.54736504       0.51196678       0.00000000
Si       2.69101026       2.19997169       1.47979816       0.00000000
Si      -0.27473085       1.38958587       3.69923757       0.00000000
