10
Lattice="16.28999089631971 0.0 0.0 0.0 16.28999089631971 0.0 0.0 0.0 34.376317263855086" Properties=species:S:1:pos:R:3:initial_magmoms:R:1 pbc="T T T"
Si      -0.94949523      -1.23823548      -1.78918518       0.00000000
Si       1.54929303       1.17858168      -1.38681017       0.00000000
Si      -1.56944376       1.52444656       1.00702040       0.00000000
Si       0.96443316      -1.77199362       1.42331784       0.00000000
Si       0.94542273      -2.43797769      -2.53917372       0.00000000
Si      -0.45949203       1.87228042       3.11208974       0.00000000
Si       2.32169967      -0.51825006      -2.92755757       0.00000000
Si      -3.68057889       0.46830492       1.11589026       0.00000000
Si      -0.76286070      -3.43468134       1.73930512       0.00000000
Si      -1.88784810       0.21214467      -3.44134629       0.00000000
