10
Lattice="16.28999089631971 0.0 0.0 0.0 16.28999089631971 0.0 0.0 0.0 34.376317263855086" Properties=species:S:1:pos:R:3:initial_magmoms:R:1 pbc="T T T"
Si       1.34678228       1.35798164      -1.36414929       0.00000000
Si      -1.35738054       1.35667844       1.35961848       0.00000000
Si       1.35686289      -1.35807424       1.35917159       0.00000000
Si      -1.36202319      -1.36221120      -1.38260938       0.00000000
Si      -2.71498914       2.71083356      -0.00089378       0.00000000
Si       2.71274179       2.71521557      -0.00226884       0.00000000
Si      -2.71353933      -2.71659438      -0.00305949       0.00000000
Si      -0.00030951       2.71405898       2.71617747       0.00000000
Si       2.71462003      -0.00078681       2.71652124       0.00000000
Si      -2.71575477      -0.00079984       2.71617747       0.00000000
