10
Lattice="16.28999089631971 0.0 0.0 0.0 16.28999089631971 0.0 0.0 0.0 34.376317263855086" Properties=species:S:1:pos:R:3:initial_magmoms:R:1 pbc="T T T"
Si      -1.32390459       0.25770780       1.91318063       0.00000000
Si       0.77665833       2.17965087      -0.48749083       0.00000000
Si       1.40508648      -1.79445753       0.67092296       0.00000000
Si      -2.02005774      -1.17563301      -0.61949596       0.00000000
Si       2.52023309      -0.33192504      -2.00197471       0.00000000
Si      -0.63522855      -2.53863849      -1.92799683       0.00000000
Si      -2.59737534      -1.76862159       1.74600851       0.00000000
Si       0.76444083      -1.12185972      -3.37713130       0.00000000
Si       0.12377142       0.50645610       3.77998758       0.00000000
Si      -3.16055322       0.23964219      -2.13160787       0.00000000
