10
Lattice="16.28999089631971 0.0 0.0 0.0 16.28999089631971 0.0 0.0 0.0 34.376317263855086" Properties=species:S:1:pos:R:3:initial_magmoms:R:1 pbc="T T T"
Si      -1.35987291      -1.16046507      -1.45071578       0.00000000
Si      -1.38482919       1.36300548       1.30850087       0.00000000
Si       0.55907280      -2.08450328       1.16429214       0.00000000
Si       1.39966938       1.41677877      -1.44913446       0.00000000
Si       0.63522855       2.53863849       1.92799683       0.00000000
Si       2.04031503       0.74418096       2.59891979       0.00000000
Si      -2.52532467       2.77828068      -0.20361104       0.00000000
Si       1.18242594      -1.31763524       3.33144514       0.00000000
Si       0.11220552      -2.49649367      -2.86733023       0.00000000
Si       2.53644652      -2.87078900       0.02083206       0.00000000
