10
Lattice="16.28999089631971 0.0 0.0 0.0 16.28999089631971 0.0 0.0 0.0 34.376317263855086" Properties=species:S:1:pos:R:3:initial_magmoms:R:1 pbc="T T T"
Si      -0.37791171      -0.23969106      -2.27096954       0.00000000
Si       2.20030659       0.59768010       0.53001436       0.00000000
Si      -0.92688471      -1.49618437       1.54906647       0.00000000
Si      -0.32184153       2.39251230      -0.18363839       0.00000000
Si       0.14041980       2.09261340      -2.64629038       0.00000000
Si      -2.02227318       0.19010430       2.77747048       0.00000000
Si       1.67055579       2.27740716       2.16949059       0.00000000
Si      -2.76231159      -2.54525434       0.48725019       0.00000000
Si       3.26330469       1.21500594      -1.54236309       0.00000000
Si       3.44773356      -1.14496546       1.38079431       0.00000000
