10
Lattice="16.28999089631971 0.0 0.0 0.0 16.28999089631971 0.0 0.0 0.0 34.376317263855086" Properties=species:S:1:pos:R:3:initial_magmoms:R:1 pbc="T T T"
Si      -0.77665833      -2.17965087       0.48749083       0.00000000
Si      -0.01492164       1.44730134       1.90723352       0.00000000
Si      -1.59974316       1.26514656      -1.40083571       0.00000000
Si       1.74357476      -2.51157591      -1.51448388       0.00000000
Si      -0.02816541       2.24611407      -2.91397891       0.00000000
Si      -2.10056292      -1.92194307       2.40067146       0.00000000
Si       0.77551056       0.16094520       3.70917233       0.00000000
Si       2.55691817      -0.57691035      -2.86430511       0.00000000
Si      -2.59164126      -0.38177244      -2.88623721       0.00000000
Si       1.71970991       3.13321860      -1.59372134       0.00000000
