10
Lattice="16.28999089631971 0.0 0.0 0.0 16.28999089631971 0.0 0.0 0.0 34.376317263855086" Properties=species:S:1:pos:R:3:initial_magmoms:R:1 pbc="T T T"
Si      -1.32794355      -1.34646624      -1.37079079       0.00000000
Si       1.38488620       1.37103156      -1.36305612       0.00000000
Si       1.15092923      -1.49439573       1.44978761       0.00000000
Si      -1.43415435       1.32862869       1.40011381       0.00000000
Si       0.31372096       2.21573322       2.72037139       0.00000000
Si       2.08035517       0.27675081       2.94378320       0.00000000
Si      -2.68107240      -2.70068652       0.00873159       0.00000000
Si      -2.68946175       0.00878031      -2.72635287       0.00000000
Si      -2.69118849       2.72733696      -0.00374702       0.00000000
Si       2.73493624      -2.69430084       0.01265049       0.00000000
