10
Lattice="16.28999089631971 0.0 0.0 0.0 16.28999089631971 0.0 0.0 0.0 34.376317263855086" Properties=species:S:1:pos:R:3:initial_magmoms:R:1 pbc="T T T"
Si      -1.44767601      -0.24874830      -1.86680695       0.00000000
Si       1.42839747       1.83413997      -0.55830608       0.00000000
Si      -1.49898951       0.53339976       1.80963910       0.00000000
Si       1.47060811      -1.87483239       0.94108659       0.00000000
Si       0.51487803       1.74760749       2.77777987       0.00000000
Si       2.65983839      -1.60754607      -1.25009548       0.00000000
Si       1.62389538      -0.34420770       2.91356640       0.00000000
Si      -0.52012341      -3.17308512       1.08612035       0.00000000
Si      -2.01732102      -1.79890470       2.18495995       0.00000000
Si      -2.67542073       1.75109355      -1.45717853       0.00000000
