10
Lattice="16.28999089631971 0.0 0.0 0.0 16.28999089631971 0.0 0.0 0.0 34.376317263855086" Properties=species:S:1:pos:R:3:initial_magmoms:R:1 pbc="T T T"
Si      -2.14738038       0.92519055      -0.22282741       0.00000000
Si       0.32184153      -2.39251230       0.18363839       0.00000000
Si       0.46226133      -0.29989890      -2.46265199       0.00000000
Si       1.98966060       1.70139276       0.70839317       0.00000000
Si       2.47612887       0.91430883      -1.49451123       0.00000000
Si       1.99239732      -0.11510514       2.35312898       0.00000000
Si       2.52214812      -1.79483220       0.71365275       0.00000000
Si      -0.05607018      -2.63220336      -2.08733115       0.00000000
Si      -0.11987811      -0.44409798       3.54839420       0.00000000
Si      -2.54979225       2.02111659       1.83212123       0.00000000
