10
Lattice="16.28999089631971 0.0 0.0 0.0 16.28999089631971 0.0 0.0 0.0 34.376317263855086" Properties=species:S:1:pos:R:3:initial_magmoms:R:1 pbc="T T T"
Si       0.48646827      -0.78708393      -2.20290439       0.00000000
Si       0.00273672      -1.81649790       1.64473582       0.00000000
Si       2.32519292       0.80070237       0.17717564       0.00000000
Si      -0.72599643       2.31681267       0.42960108       0.00000000
Si      -1.98966060      -1.70139276      -0.70839317       0.00000000
Si      -1.40616909       1.87419708       2.63580560       0.00000000
Si       0.53248752      -3.49622496       0.00525958       0.00000000
Si       1.59548562      -2.87889912      -2.06711786       0.00000000
Si      -2.90367621       0.06209748       2.75870100       0.00000000
Si       1.48580343       0.73987551      -3.68342445       0.00000000
