10
Lattice="16.28999089631971 0.0 0.0 0.0 16.28999089631971 0.0 0.0 0.0 34.376317263855086" Properties=species:S:1:pos:R:3:initial_magmoms:R:1 pbc="T T T"
Si       1.25703414      -1.39870827       1.40386083       0.00000000
Si      -1.35506736      -1.36190916      -1.36439679       0.00000000
Si       1.36210464       1.35707103      -1.36312487       0.00000000
Si      -1.42084638       1.26917019       1.41792075       0.00000000
Si      -0.31454361      -2.37967578       2.91700403       0.00000000
Si       2.72111811       2.69239491       0.01416305       0.00000000
Si       2.69118849      -2.72733696       0.00374702       0.00000000
Si      -2.70352098      -2.71894761      -0.00226884       0.00000000
Si      -2.70910845       2.71492398       0.01395679       0.00000000
Si       0.00083079       2.71230129      -2.72260585       0.00000000
