10
Lattice="16.28999089631971 0.0 0.0 0.0 16.28999089631971 0.0 0.0 0.0 34.376317263855086" Properties=species:S:1:pos:R:3:initial_magmoms:R:1 pbc="T T T"
Si      -1.12381452      -1.56708171       1.45032874       0.00000000
Si       1.59658290       1.18128564       1.53761713       0.00000000
Si      -1.90770561       1.72698435       0.37134010       0.00000000
Si      -0.74759697      -1.98741258      -1.70547881       0.00000000
Si       1.73688867       1.43091360      -1.92218723       0.00000000
Si      -2.51967204      -0.19831446       2.89640371       0.00000000
Si       0.20597076       2.54068614       2.90368462       0.00000000
Si       3.28295695       2.08666755       0.02306652       0.00000000
Si      -2.39469516       2.48613093      -1.79691986       0.00000000
Si      -1.96594236      -3.39719805       0.09570372       0.00000000
