10
Lattice="16.28999089631971 0.0 0.0 0.0 16.28999089631971 0.0 0.0 0.0 34.376317263855086" Properties=species:S:1:pos:R:3:initial_magmoms:R:1 pbc="T T T"
Si       1.35666378      -1.35708732       1.35700588       0.00000000
Si       1.35721764       1.35653346      -1.35789967       0.00000000
Si      -1.35773892       1.35829278       1.35683400       0.00000000
Si      -1.35801585      -1.35793440      -1.35834656       0.00000000
Si      -0.00060273       2.71362078       2.71311798       0.00000000
Si       2.71355562      -0.00014661       2.71428678       0.00000000
Si       2.71459818      -2.71437012      -0.00013751       0.00000000
Si      -2.71490769      -2.71477737      -0.00072190       0.00000000
Si       2.71489140      -0.00042354      -2.71507743       0.00000000
Si       2.71477737       2.71546155      -0.00058440       0.00000000
