10
Lattice="16.28999089631971 0.0 0.0 0.0 16.28999089631971 0.0 0.0 0.0 34.376317263855086" Properties=species:S:1:pos:R:3:initial_magmoms:R:1 pbc="T T T"
Si       0.22885821       1.60099749       1.71104777       0.00000000
Si      -2.31171064      -0.49410828      -0.13860539       0.00000000
Si       1.19589777      -1.80719631       0.97931307       0.00000000
Si       0.91750167       0.25299999      -2.20658266       0.00000000
Si       1.14681600      -3.39233711      -0.72970649       0.00000000
Si       0.73635687       0.13608666       3.62000011       0.00000000
Si       1.84632489      -1.98928593      -2.52459815       0.00000000
Si       0.11515401      -2.11602213       3.08183856       0.00000000
Si      -3.42072800       1.59770691      -0.27439192       0.00000000
Si      -2.46499791      -2.02473297      -2.11108520       0.00000000
