10
Lattice="16.28999089631971 0.0 0.0 0.0 16.28999089631971 0.0 0.0 0.0 34.376317263855086" Properties=species:S:1:pos:R:3:initial_magmoms:R:1 pbc="T T T"
Si       0.85788909       2.06181620      -0.73252535       0.00000000
Si      -0.62335314      -0.76686804      -2.16715300       0.00000000
Si      -1.87059699       0.34142930       1.46126931       0.00000000
Si       1.84790732      -1.13722119       1.07336673       0.00000000
Si       2.23641242       2.75518376       1.12644379       0.00000000
Si      -1.18242594       1.31763524      -3.33144514       0.00000000
Si      -0.94354938       1.18964471       3.46265962       0.00000000
Si      -3.14457273       2.08765214       0.34256019       0.00000000
Si       1.86686562      -3.35318247       0.34613533       0.00000000
Si       1.35402058      -1.55315376      -3.31061308       0.00000000
