10
Lattice="16.28999089631971 0.0 0.0 0.0 16.28999089631971 0.0 0.0 0.0 34.376317263855086" Properties=species:S:1:pos:R:3:initial_magmoms:R:1 pbc="T T T"
Si      -0.03463254      -1.97405478      -1.21840049       0.00000000
Si       1.39281129       1.60699221      -0.99076039       0.00000000
Si       1.42816059      -0.86765427       1.76281853       0.00000000
Si      -2.34774738       0.73388079      -0.04991444       0.00000000
Si       3.52897342       0.01296684       1.06521954       0.00000000
Si       0.29548431      -0.23415246       3.71934772       0.00000000
Si      -1.17126729      -1.46373795      -3.25196705       0.00000000
Si      -0.85359600      -3.73739841       0.34689161       0.00000000
Si       3.07771924       2.28747438       0.58676969       0.00000000
Si      -3.72402432      -1.18584684       0.33846941       0.00000000
