10
Lattice="16.28999089631971 0.0 0.0 0.0 16.28999089631971 0.0 0.0 0.0 34.376317263855086" Properties=species:S:1:pos:R:3:initial_magmoms:R:1 pbc="T T T"
Si      -1.13267628       0.63350181       1.95652919       0.00000000
Si       2.10081283       0.88062111      -0.69759900       0.00000000
Si       0.70816346      -2.22806475       0.65043466       0.00000000
Si      -1.42816059       0.86765427      -1.76281853       0.00000000
Si      -1.46279313      -1.10640051      -2.98121903       0.00000000
Si      -3.14859636      -0.73523286       1.77031258       0.00000000
Si      -0.03534930       2.47464648      -2.75357893       0.00000000
Si       1.59664384      -1.66244337       2.90043464       0.00000000
Si       1.64955865       3.15512865      -1.17604885       0.00000000
Si       0.02767671      -0.16824312       3.90865821       0.00000000
