10
Lattice="16.28999089631971 0.0 0.0 0.0 16.28999089631971 0.0 0.0 0.0 34.376317263855086" Properties=species:S:1:pos:R:3:initial_magmoms:R:1 pbc="T T T"
Si       1.42983846       0.04727358      -1.88444201       0.00000000
Si      -1.50361587       1.81161483      -0.25208168       0.00000000
Si       1.86354342      -0.27438876       1.47543236       0.00000000
Si      -1.47103587      -1.82641851       0.48181873       0.00000000
Si      -1.35852084       2.47123277       1.91768393       0.00000000
Si       1.68246378      -2.29040658      -2.19633851       0.00000000
Si      -3.21587406      -0.66933981       1.55088842       0.00000000
Si       0.10225233       1.42352838      -3.36303700       0.00000000
Si      -0.31915368      -3.22450776       2.00266223       0.00000000
Si      -2.31803442      -2.57611689      -1.61472528       0.00000000
