10
Lattice="16.28999089631971 0.0 0.0 0.0 16.28999089631971 0.0 0.0 0.0 34.376317263855086" Properties=species:S:1:pos:R:3:initial_magmoms:R:1 pbc="T T T"
Si       1.27391058      -1.38515499      -1.36345145       0.00000000
Si       1.36850661       1.33393923       1.36813350       0.00000000
Si      -1.34411559      -1.37982816       1.36490213       0.00000000
Si      -1.35010705       1.41648066      -1.51987409       0.00000000
Si      -0.53958996      -2.19093984      -2.80798777       0.00000000
Si       2.33264655       0.11626173      -2.78629630       0.00000000
Si      -2.33134987      -0.47319192      -2.87471224       0.00000000
Si       2.72792340       2.68110594      -0.00573397       0.00000000
Si      -2.71494746       2.69584839      -0.02254400       0.00000000
Si       0.01425375       2.69011431       2.72606755       0.00000000
