10
Lattice="16.28999089631971 0.0 0.0 0.0 16.28999089631971 0.0 0.0 0.0 34.376317263855086" Properties=species:S:1:pos:R:3:initial_magmoms:R:1 pbc="T T T"
Si       1.35594702       1.35622395       1.35765903       0.00000000
Si       1.35733167      -1.35684297      -1.35738402       0.00000000
Si      -1.35723719       1.35762489      -1.35752153       0.00000000
Si      -1.36069067      -1.35940050       1.35673087       0.00000000
Si       0.00182448       2.71466334      -2.71373675       0.00000000
Si       0.00097740      -2.71386513      -2.71480242       0.00000000
Si      -2.71224332       0.00185706       2.71655561       0.00000000
Si       2.71467963       0.00123804      -2.71432115       0.00000000
Si      -2.71433012      -2.71521720      -0.00027501       0.00000000
Si      -2.71442621       2.71520091       0.00013751       0.00000000
