10
Lattice="16.28999089631971 0.0 0.0 0.0 16.28999089631971 0.0 0.0 0.0 34.376317263855086" Properties=species:S:1:pos:R:3:initial_magmoms:R:1 pbc="T T T"
Si       1.30471497      -1.23611778      -1.46697578       0.00000000
Si       0.90645705       1.54971657       1.49537064       0.00000000
Si      -1.13542929      -1.73801268       1.25858643       0.00000000
Si      -1.41922064       1.46598597      -1.45136893       0.00000000
Si      -1.12596480       1.93060935       2.73085617       0.00000000
Si      -2.29625143      -0.17386317       2.72583722       0.00000000
Si       3.39007932      -0.66038031       1.25686761       0.00000000
Si       2.47337586      -2.72126079       0.01412867       0.00000000
Si       2.46830967       2.82185154       0.02646978       0.00000000
Si      -0.06426405      -2.58271434      -2.82484107       0.00000000
