10
Lattice="16.28999089631971 0.0 0.0 0.0 16.28999089631971 0.0 0.0 0.0 34.376317263855086" Properties=species:S:1:pos:R:3:initial_magmoms:R:1 pbc="T T T"
Si       2.16060786       0.90026685       0.57552863       0.00000000
Si       0.32356827      -2.30304762      -0.65507547       0.00000000
Si      -1.01626794       0.14175558       2.24034022       0.00000000
Si      -1.56175977       0.67184847      -2.14501464       0.00000000
Si       2.45465865       2.32577217      -1.32850790       0.00000000
Si      -1.56150564      -3.42528201       0.18425716       0.00000000
Si       1.85596857       2.44895715       2.26203169       0.00000000
Si       0.50966523       3.74202477       0.73685677       0.00000000
Si       0.79723260       0.94754043       3.68487655       0.00000000
Si      -0.65647071      -0.67880430      -3.87438500       0.00000000
