10
Lattice="16.28999089631971 0.0 0.0 0.0 16.28999089631971 0.0 0.0 0.0 34.376317263855086" Properties=species:S:1:pos:R:3:initial_magmoms:R:1 pbc="T T T"
Si       0.01895830      -2.21596128      -0.72723140       0.00000000
Si      -0.32952227      -0.12349449       2.36543571       0.00000000
Si      -1.84790732       1.13722119      -1.07336673       0.00000000
Si       2.21824677       0.79120530      -0.80010923       0.00000000
Si      -0.99001823       3.19903739      -1.80589208       0.00000000
Si       0.55622694       1.86668643       3.31917279       0.00000000
Si       0.11072802      -2.31500448      -3.08575747       0.00000000
Si       2.11337175      -3.23602479      -0.22684944       0.00000000
Si       0.38850510       3.89240495       0.05307706       0.00000000
Si       2.55975033       3.02882318      -0.23138712       0.00000000
