10
Lattice="16.28999089631971 0.0 0.0 0.0 16.28999089631971 0.0 0.0 0.0 34.376317263855086" Properties=species:S:1:pos:R:3:initial_magmoms:R:1 pbc="T T T"
Si      -0.45125418       2.27450754      -0.47844985       0.00000000
Si       1.81262251      -0.76683546       1.32070447       0.00000000
Si      -2.10081283      -0.88062111       0.69759900       0.00000000
Si       0.60344839      -0.84773160      -2.15584319       0.00000000
Si      -2.13616213       1.59402537      -2.05597993       0.00000000
Si      -0.30559551       0.89876817      -3.45530308       0.00000000
Si      -1.39264937      -3.10868586       1.34803366       0.00000000
Si      -3.52897342      -0.01296684      -1.06521954       0.00000000
Si       2.23290451      -2.99669211       0.54954011       0.00000000
Si       1.12819816      -0.74096694       3.54045327       0.00000000
