10
Lattice="16.28999089631971 0.0 0.0 0.0 16.28999089631971 0.0 0.0 0.0 34.376317263855086" Properties=species:S:1:pos:R:3:initial_magmoms:R:1 pbc="T T T"
Si      -0.68442435       0.02586852       2.21974880       0.00000000
Si       1.93987836       1.29114540      -0.37343014       0.00000000
Si      -1.81262251       0.76683546      -1.32070447       0.00000000
Si       0.42028200      -2.22985665      -0.77116436       0.00000000
Si       2.01966678      -1.55720997      -2.40146211       0.00000000
Si       3.40726527      -0.47019456      -0.84888925       0.00000000
Si      -1.20917412      -0.08089614      -3.47654766       0.00000000
Si      -2.31679149      -1.77622902       2.27732916       0.00000000
Si      -1.15742079       2.38236363       2.69957370       0.00000000
Si       1.10690550       0.16713540      -3.71793830       0.00000000
