10
Lattice="10.86 0.0 0.0 0.0 10.86 0.0 0.0 0.0 10.86" Properties=species:S:1:pos:R:3:initial_magmoms:R:1 pbc="T T T"
Si      -1.50291540       0.84655872       1.49468352       0.00000000
Si       1.13717232      -1.63726446       1.31136672       0.00000000
Si      -1.32532182      -1.50470730      -1.38827724       0.00000000
Si      -0.26414778       2.35918296       2.79029238       0.00000000
Si      -0.44302284       2.53971960      -2.62568736       0.00000000
Si       2.45085222      -0.35581704       2.79029238       0.00000000
Si      -2.97914778       2.35918296       0.07529238       0.00000000
Si       2.45085222      -3.07081704       0.07529238       0.00000000
Si      -2.97914778      -0.35581704      -2.63970762       0.00000000
Si      -0.26414778      -3.07081704      -2.63970762       0.00000000
