10
Lattice="10.86 0.0 0.0 0.0 10.86 0.0 0.0 0.0 10.86" Properties=species:S:1:pos:R:3:initial_magmoms:R:1 pbc="T T T"
Si       1.35750000       1.35750000       1.35750000       0.00000000
Si       1.35750000      -1.35750000      -1.35750000       0.00000000
Si      -1.35750000      -1.35750000       1.35750000       0.00000000
Si      -1.35750000       1.35750000      -1.35750000       0.00000000
Si      -2.67919458      -2.52349476      -0.07148052       0.00000000
Si       0.20059506      -2.63578716       2.61910620       0.00000000
Si      -0.10564608      -2.61985554      -2.66251362       0.00000000
Si       2.54133774       2.81235990       0.00969798       0.00000000
Si      -2.41867404       2.92360974      -0.10606962       0.00000000
Si       0.04382010       2.79105258       2.59357434       0.00000000
