10
Lattice="10.86 0.0 0.0 0.0 10.86 0.0 0.0 0.0 10.86" Properties=species:S:1:pos:R:3:initial_magmoms:R:1 pbc="T T T"
Si      -1.20813156       1.43041404      -1.28045916       0.00000000
Si      -1.20813156      -1.28458596       1.43454084       0.00000000
Si       1.50686844      -1.28458596      -1.28045916       0.00000000
Si      -2.26930560       0.28152378       2.68597122       0.00000000
Si      -2.56563156       0.07291404      -2.63795916       0.00000000
Si      -2.56563156      -2.64208596       0.07704084       0.00000000
Si       0.14936844      -2.64208596      -2.63795916       0.00000000
Si       0.14936844       2.78791404      -2.63795916       0.00000000
Si       0.14936844      -2.64208596       2.79204084       0.00000000
Si      -2.45907324       3.00300720      -0.04802292       0.00000000
