10
Lattice="16.28999089631971 0.0 0.0 0.0 16.28999089631971 0.0 0.0 0.0 34.28971787722196" Properties=species:S:1:pos:R:3:initial_magmoms:R:1 pbc="T T T"
Si      -0.59039847       1.49788179       1.76636722       0.00000000
Si       1.81151316      -1.56408435      -0.13290702       0.00000000
Si      -1.80066891      -1.24554969      -0.98644716       0.00000000
Si       1.41454215       0.80754417      -1.76554427       0.00000000
Si      -0.00788436      -3.04318377      -1.04233943       0.00000000
Si       3.41006715       0.46551933      -0.44010877       0.00000000
Si      -1.90854617       0.06239070       3.14191172       0.00000000
Si       2.69210169      -1.88915130       1.97137120       0.00000000
Si      -1.46101752       3.50029746       0.91882779       0.00000000
Si       1.40483331      -0.39560265      -3.81109853       0.00000000
