10
Lattice="16.28999089631971 0.0 0.0 0.0 16.28999089631971 0.0 0.0 0.0 34.28971787722196" Properties=species:S:1:pos:R:3:initial_magmoms:R:1 pbc="T T T"
Si      -1.35567009      -1.35633895      -1.35687918       0.00000000
Si      -1.35330804       1.36130806       1.36054819       0.00000000
Si       1.35925389       1.35933697      -1.35687918       0.00000000
Si       1.35881406      -1.35849173       1.36373713       0.00000000
Si      -2.71276230       0.00135696      -2.71454703       0.00000000
Si       0.00127062      -2.71333312      -2.71444416       0.00000000
Si      -2.71399219       2.71552834       0.00027432       0.00000000
Si       0.00175932       2.71629397      -2.71396411       0.00000000
Si       2.71624347      -2.71444084       0.00030861       0.00000000
Si       2.71674846       0.00136347      -2.71410127       0.00000000
