10
Lattice="16.28999089631971 0.0 0.0 0.0 16.28999089631971 0.0 0.0 0.0 34.28971787722196" Properties=species:S:1:pos:R:3:initial_magmoms:R:1 pbc="T T T"
Si      -2.09077263       0.82313207       0.57754204       0.00000000
Si      -0.39610764      -1.09911236      -2.00972149       0.00000000
Si       0.91303821      -1.44429651       1.60211938       0.00000000
Si       2.00155230       1.21231646      -0.43102199       0.00000000
Si       2.61710253      -2.10785337       0.07663756       0.00000000
Si       1.66780278      -2.24012817      -2.11286502       0.00000000
Si      -1.77197733       3.13025219       0.27603238       0.00000000
Si      -3.56726565      -0.88748735      -0.12286013       0.00000000
Si       1.16015751      -0.05581931       3.55203957       0.00000000
Si      -2.44768653      -2.32086141      -1.72007608       0.00000000
