10
Lattice="16.28999089631971 0.0 0.0 0.0 16.28999089631971 0.0 0.0 0.0 34.28971787722196" Properties=species:S:1:pos:R:3:initial_magmoms:R:1 pbc="T T T"
Si       2.28757212       0.21312207      -0.60946579       0.00000000
Si      -1.19031030       2.08956717       0.19325696       0.00000000
Si      -0.36023706      -1.04146857       2.17276919       0.00000000
Si      -1.29098250      -0.89474454      -1.90626935       0.00000000
Si      -3.22872687      -0.77641398      -0.42522703       0.00000000
Si       0.45598968       0.80997138       3.39464968       0.00000000
Si       0.63975717      -2.45587226      -2.56998150       0.00000000
Si       2.00564109       1.14544764      -2.80990679       0.00000000
Si      -0.24990489       2.85304689       2.24608065       0.00000000
Si      -3.32566866       1.29824784       0.74134411       0.00000000
