10
Lattice="16.28999089631971 0.0 0.0 0.0 16.28999089631971 0.0 0.0 0.0 34.28971787722196" Properties=species:S:1:pos:R:3:initial_magmoms:R:1 pbc="T T T"
Si      -1.34662914      -1.34441370      -1.38074484       0.00000000
Si       1.36443411       1.37020077      -1.37913322       0.00000000
Si       1.43793459      -1.26074826       1.49873583       0.00000000
Si      -1.54085481       1.25957538       1.57461901       0.00000000
Si       0.37980135       2.23609572       2.65615161       0.00000000
Si       2.23283772       0.56185839       2.93928197       0.00000000
Si       2.73499326      -2.67888073      -0.00620644       0.00000000
Si      -2.69943545      -2.72086494       0.00596641       0.00000000
Si      -2.72125102       2.72433960       0.00469769       0.00000000
Si       0.00667890      -2.70572176      -2.74129303       0.00000000
