10
Lattice="16.28999089631971 0.0 0.0 0.0 16.28999089631971 0.0 0.0 0.0 34.28971787722196" Properties=species:S:1:pos:R:3:initial_magmoms:R:1 pbc="T T T"
Si       0.93206493       1.81017738      -1.23004145       0.00000000
Si      -1.92065616      -0.97652034      -1.08153260       0.00000000
Si      -2.08194345       0.77125005       1.00962702       0.00000000
Si       1.85303637      -1.67423733       0.28313036       0.00000000
Si      -0.27407925       0.94763817       2.59796193       0.00000000
Si       1.57617153      -0.66529989       2.58695492       0.00000000
Si      -0.37980135      -2.23609572      -2.65615161       0.00000000
Si       2.34975105       0.49671468      -2.65947772       0.00000000
Si       2.13056910       3.07721358       0.40581904       0.00000000
Si       1.05813324      -3.49684398      -1.15741578       0.00000000
