10
Lattice="16.28999089631971 0.0 0.0 0.0 16.28999089631971 0.0 0.0 0.0 34.28971787722196" Properties=species:S:1:pos:R:3:initial_magmoms:R:1 pbc="T T T"
Si       1.65529206       1.00023858      -1.34515008       0.00000000
Si       1.38280923      -1.29850848       1.40317376       0.00000000
Si      -0.83880468      -1.82099394      -1.24726724       0.00000000
Si      -1.32110271       1.41649695       1.37452468       0.00000000
Si      -0.12083922       0.53367669      -3.65874721       0.00000000
Si       2.67361254      -2.62801683      -0.01063668       0.00000000
Si       3.50282241      -0.65774133      -1.21269221       0.00000000
Si      -2.63902887      -2.69837334      -0.02259694       0.00000000
Si      -2.54762568       2.84866488      -0.12235264       0.00000000
Si       0.03888423      -2.66263308       2.74827099       0.00000000
