10
Lattice="16.28999089631971 0.0 0.0 0.0 16.28999089631971 0.0 0.0 0.0 34.28971787722196" Properties=species:S:1:pos:R:3:initial_magmoms:R:1 pbc="T T T"
Si       1.89170883      -0.90676656       1.07244582       0.00000000
Si      -1.19850417      -1.26703620      -1.63586048       0.00000000
Si       1.33345053       1.42267086      -1.54711865       0.00000000
Si      -1.31981580       0.10720449       2.17239200       0.00000000
Si       2.67100614       2.53420272       0.05232614       0.00000000
Si      -2.13056910      -3.07721358      -0.40581904       0.00000000
Si       3.09707109       1.09089243       1.94933726       0.00000000
Si      -2.40464835      -2.12957541       2.19214289       0.00000000
Si       3.10031280      -2.35638108      -0.33223326       0.00000000
Si      -2.51045190       0.12566106      -3.06426806       0.00000000
