10
Lattice="16.28999089631971 0.0 0.0 0.0 16.28999089631971 0.0 0.0 0.0 34.28971787722196" Properties=species:S:1:pos:R:3:initial_magmoms:R:1 pbc="T T T"
Si      -0.49947746       1.62862207      -1.66120060       0.00000000
Si       2.37279326      -0.11034261      -0.26241936       0.00000000
Si      -0.44894263       1.59871363       1.73351766       0.00000000
Si      -0.56239596      -2.37396843       0.22953550       0.00000000
Si       2.03625814      -1.25432415      -2.31490015       0.00000000
Si       2.71832044      -0.10648188       2.25252712       0.00000000
Si      -1.20249426       0.06001855       3.32497293       0.00000000
Si       0.83415389      -1.25784279       3.21737174       0.00000000
Si       1.78153142       2.08741363       2.43337119       0.00000000
Si      -2.49385143       2.61530737      -0.87202230       0.00000000
