10
Lattice="16.28999089631971 0.0 0.0 0.0 16.28999089631971 0.0 0.0 0.0 34.28971787722196" Properties=species:S:1:pos:R:3:initial_magmoms:R:1 pbc="T T T"
Si       1.32232446       0.55548900       1.84043306       0.00000000
Si      -0.43368867       1.53010341      -1.79866816       0.00000000
Si      -1.60906104      -1.57336965       0.85192852       0.00000000
Si       1.55069397      -1.13165001      -1.46098283       0.00000000
Si      -2.93136921       1.70059455      -0.75440850       0.00000000
Si       1.12462902       0.31166028      -3.35799395       0.00000000
Si       2.54221740       2.33124561       1.01696502       0.00000000
Si      -0.31210011      -3.47392395       1.33459086       0.00000000
Si       3.04497567      -1.11083139       1.90890966       0.00000000
Si      -2.86619292      -2.11533795      -1.23792809       0.00000000
