10
Lattice="16.28999089631971 0.0 0.0 0.0 16.28999089631971 0.0 0.0 0.0 34.28971787722196" Properties=species:S:1:pos:R:3:initial_magmoms:R:1 pbc="T T T"
Si       1.14699519       1.83236436       0.88628683       0.00000000
Si      -1.15815384       1.44800181      -1.48323687       0.00000000
Si       1.54051272      -1.24926381      -1.46324595       0.00000000
Si      -1.82118942      -1.04366772       1.42353843       0.00000000
Si      -2.50844823       2.67981903      -0.01179567       0.00000000
Si       2.68149690      -2.67455736       0.05002873       0.00000000
Si      -2.50791066       0.10334376      -2.84861990       0.00000000
Si      -2.65860945      -2.76729633      -0.01049266       0.00000000
Si      -0.47143260       3.63893255       1.18868802       0.00000000
Si       0.20448837      -2.60929962      -2.84423082       0.00000000
