10
Lattice="16.28999089631971 0.0 0.0 0.0 16.28999089631971 0.0 0.0 0.0 34.28971787722196" Properties=species:S:1:pos:R:3:initial_magmoms:R:1 pbc="T T T"
Si       0.43368867      -1.53010341       1.79866816       0.00000000
Si       0.54418374       2.34528759      -0.07169984       0.00000000
Si       1.55831769      -1.21844313      -1.55932579       0.00000000
Si      -2.49768054       0.17049114       1.04425965       0.00000000
Si       1.98438264      -2.66175342       0.33768533       0.00000000
Si      -1.31373963       2.17694673      -2.32251247       0.00000000
Si       1.49348349       2.47756239       2.11780274       0.00000000
Si      -1.51972668       3.48630339       0.03144369       0.00000000
Si       0.22076208      -2.32997499      -3.15877058       0.00000000
Si      -2.46073482       0.34458237      -3.20879930       0.00000000
