10
Lattice="16.28999089631971 0.0 0.0 0.0 16.28999089631971 0.0 0.0 0.0 34.28971787722196" Properties=species:S:1:pos:R:3:initial_magmoms:R:1 pbc="T T T"
Si      -1.05081903      -1.81729611       1.01346747       0.00000000
Si      -0.91303821       1.44429651      -1.60211938       0.00000000
Si       1.70406432      -0.66355686      -1.52548182       0.00000000
Si       0.24711930       1.38847719       1.94992019       0.00000000
Si       2.88567576       1.31474865      -1.26913175       0.00000000
Si       1.08851409       2.65661297      -2.03314138       0.00000000
Si       0.60409836      -3.30916689       1.79993688       0.00000000
Si      -0.14801094      -0.03938922       3.84271367       0.00000000
Si      -1.30914585       0.34518414      -3.61184087       0.00000000
Si       0.75476457      -0.79583166      -3.71498440       0.00000000
