10
Lattice="16.28999089631971 0.0 0.0 0.0 16.28999089631971 0.0 0.0 0.0 34.28971787722196" Properties=species:S:1:pos:R:3:initial_magmoms:R:1 pbc="T T T"
Si      -0.00970884      -1.20314682      -2.04555426       0.00000000
Si      -1.41454215      -0.80754417       1.76554427       0.00000000
Si      -0.34824762       2.11302477      -1.09854031       0.00000000
Si       1.99552500      -0.34202484       1.32543550       0.00000000
Si       0.39697101      -2.37162852       1.63263725       0.00000000
Si       1.52570511       2.05174179      -2.50987159       0.00000000
Si      -2.37456072      -1.20932073      -2.43731451       0.00000000
Si       1.25810928       0.00578295      -3.62284788       0.00000000
Si      -3.21521106      -2.05309386       0.77909712       0.00000000
Si       3.91460103      -0.35176626      -0.05661236       0.00000000
