10
Lattice="16.28999089631971 0.0 0.0 0.0 16.28999089631971 0.0 0.0 0.0 34.28971787722196" Properties=species:S:1:pos:R:3:initial_magmoms:R:1 pbc="T T T"
Si       1.47724236      -1.23546618       1.32450967       0.00000000
Si      -0.84717774       1.78074135       1.38485961       0.00000000
Si       1.47062862       1.36106208      -1.36287989       0.00000000
Si      -1.31463558      -1.55101977      -1.34679800       0.00000000
Si       0.61489863      -0.30548637       3.44855314       0.00000000
Si      -2.27686959       2.95215525      -0.12395740       0.00000000
Si      -2.46643632       0.00131949      -2.84117903       0.00000000
Si       0.33928812      -2.54602926       2.93482430       0.00000000
Si       0.25899471      -2.71625487      -2.83747574       0.00000000
Si       0.26186175       2.71474479      -2.87821195       0.00000000
