10
Lattice="16.28999089631971 0.0 0.0 0.0 16.28999089631971 0.0 0.0 0.0 34.28971787722196" Properties=species:S:1:pos:R:3:initial_magmoms:R:1 pbc="T T T"
Si       1.32937803      -1.37902181      -1.29604919       0.00000000
Si       0.05649372       2.15505297      -0.90710070       0.00000000
Si       0.38133261      -0.21737376       2.29758383       0.00000000
Si      -2.04529095      -1.10212438      -0.41151113       0.00000000
Si       1.09879308      -3.22184339       0.20323527       0.00000000
Si      -3.66389793       0.59010525      -0.29893793       0.00000000
Si      -1.12374936       1.98659808      -2.94778582       0.00000000
Si       0.21840003       1.92888261       3.18325345       0.00000000
Si      -2.44042119      -2.52999080       1.48128235       0.00000000
Si       0.59326551      -1.17585293      -3.63056307       0.00000000
