10
Lattice="16.28999089631971 0.0 0.0 0.0 16.28999089631971 0.0 0.0 0.0 34.28971787722196" Properties=species:S:1:pos:R:3:initial_magmoms:R:1 pbc="T T T"
Si      -1.42969185       1.17141390      -1.50881701       0.00000000
Si      -1.05077016      -0.02673189       2.14214845       0.00000000
Si       0.84717774      -1.78074135      -1.38485961       0.00000000
Si       1.58317623       2.15223480       1.63730065       0.00000000
Si       1.46207637      -2.08622772       2.06369353       0.00000000
Si       2.31780636      -0.41967927      -2.74773950       0.00000000
Si      -3.10813200       1.08046683       1.60160504       0.00000000
Si       0.40713597       1.22569218       3.46466932       0.00000000
Si      -2.63829582       2.62102842      -0.10413793       0.00000000
Si      -0.07056828       2.43659304      -2.89823715       0.00000000
