10
Lattice="16.28999089631971 0.0 0.0 0.0 16.28999089631971 0.0 0.0 0.0 34.28971787722196" Properties=species:S:1:pos:R:3:initial_magmoms:R:1 pbc="T T T"
Si      -1.35321030       1.24913349      -1.52801926       0.00000000
Si       1.52792055       1.47325131       1.20504423       0.00000000
Si       1.33835382      -1.47758445      -1.51217740       0.00000000
Si      -1.84992498      -0.92181852       1.41458881       0.00000000
Si      -2.77089642       2.56259619      -0.09858299       0.00000000
Si      -2.64482811      -2.74442517      -0.02595733       0.00000000
Si      -0.00151497       2.59722873      -2.90670672       0.00000000
Si       2.49015456      -3.02992371      -0.01779637       0.00000000
Si       0.31931658       2.92286583       2.60972331       0.00000000
Si      -3.70296135       0.75241881       1.13145845       0.00000000
