10
Lattice="16.28999089631971 0.0 0.0 0.0 16.28999089631971 0.0 0.0 0.0 34.28971787722196" Properties=species:S:1:pos:R:3:initial_magmoms:R:1 pbc="T T T"
Si      -0.16869924      -1.32564762      -1.91130994       0.00000000
Si      -1.96654509       1.29293730      -0.14765161       0.00000000
Si       1.68450003       1.65007926      -0.12354592       0.00000000
Si      -0.18557568      -1.21477788       2.03482158       0.00000000
Si       1.77503985       1.79330094       2.33207931       0.00000000
Si      -2.35902006      -2.13317550      -1.41609756       0.00000000
Si      -0.67289103       0.31529295      -3.48411160       0.00000000
Si      -3.58746525      -0.42782427      -0.15012047       0.00000000
Si       0.26507088       0.47501640       3.61794444       0.00000000
Si       3.49936893       0.39848598      -1.17442349       0.00000000
