10
Lattice="16.28999089631971 0.0 0.0 0.0 16.28999089631971 0.0 0.0 0.0 34.28971787722196" Properties=species:S:1:pos:R:3:initial_magmoms:R:1 pbc="T T T"
Si      -0.50419179       1.64094057      -1.57280166       0.00000000
Si       0.16869924       1.32564762       1.91130994       0.00000000
Si       1.78504191      -1.13816601      -1.07241153       0.00000000
Si      -2.19032082      -0.80752788       0.49521238       0.00000000
Si       0.55074861      -1.67097933      -2.97377744       0.00000000
Si      -1.96209792       0.38851650      -2.89532253       0.00000000
Si      -1.79784585       2.61858492       1.76365833       0.00000000
Si      -2.02911498       3.10120875      -0.54746994       0.00000000
Si       3.47024241       0.50818284      -1.36980642       0.00000000
Si      -3.37056390      -0.97598277      -1.54547274       0.00000000
