10
Lattice="16.28999089631971 0.0 0.0 0.0 16.28999089631971 0.0 0.0 0.0 34.28971787722196" Properties=species:S:1:pos:R:3:initial_magmoms:R:1 pbc="T T T"
Si       1.35791811       1.35638685       1.35629626       0.00000000
Si      -1.35705474       1.35698958      -1.35739353       0.00000000
Si       1.35742941      -1.35711990      -1.35722208       0.00000000
Si      -1.35677781      -1.35861858       1.35814790       0.00000000
Si       2.71049310       0.00342090       2.71598720       0.00000000
Si       2.71393029      -0.00094482      -2.71440987       0.00000000
Si       0.00136836       2.71419093      -2.71530141       0.00000000
Si       2.71482624       2.71516833       0.00000000       0.00000000
Si      -2.71428867      -0.00099369      -2.71571288       0.00000000
Si       0.00081450      -2.71498914      -2.71506138       0.00000000
