10
Lattice="16.28999089631971 0.0 0.0 0.0 16.28999089631971 0.0 0.0 0.0 34.28971787722196" Properties=species:S:1:pos:R:3:initial_magmoms:R:1 pbc="T T T"
Si       1.35650388       1.35482301       1.35708492       0.00000000
Si      -1.36061015       1.35345465      -1.35643342       0.00000000
Si      -1.35819923      -1.35971001       1.35667345       0.00000000
Si       1.35621229      -1.36192545      -1.36085679       0.00000000
Si      -2.68513376      -0.01040931      -2.72630155       0.00000000
Si      -0.00575456       2.71396287      -2.70695528       0.00000000
Si       2.69814828       0.01326006      -2.72446362       0.00000000
Si       2.71333056       2.71044423      -0.00130301       0.00000000
Si      -0.00106181       2.71230129       2.71420414       0.00000000
Si      -2.71595444       2.71181259      -0.00068579       0.00000000
