10
Lattice="16.28999089631971 0.0 0.0 0.0 16.28999089631971 0.0 0.0 0.0 34.28971787722196" Properties=species:S:1:pos:R:3:initial_magmoms:R:1 pbc="T T T"
Si       1.35534209      -1.35703217      -1.35735924       0.00000000
Si       1.35607025       1.35760903       1.35660487       0.00000000
Si      -1.35918183      -1.35745571       1.35657058       0.00000000
Si      -1.35839991       1.35621135      -1.36366855       0.00000000
Si      -0.00587379      -2.70400340      -2.72004711       0.00000000
Si       2.71215248      -2.71400546       0.00020574       0.00000000
Si       2.71316246      -0.00008688       2.71427271       0.00000000
Si      -0.00203733      -2.71490141       2.71403269       0.00000000
Si       2.71482404       2.71503518      -0.00010287       0.00000000
Si      -0.00196908       2.71532840       2.71464990       0.00000000
