10
Lattice="16.28999089631971 0.0 0.0 0.0 16.28999089631971 0.0 0.0 0.0 34.28971787722196" Properties=species:S:1:pos:R:3:initial_magmoms:R:1 pbc="T T T"
Si       1.35773892       1.35579726      -1.35735924       0.00000000
Si       1.35718506      -1.35744570       1.35674203       0.00000000
Si      -1.35734796       1.35751346       1.35715350       0.00000000
Si      -1.35627282      -1.35842310      -1.35855938       0.00000000
Si       2.71334385      -0.00109143       2.71358692       0.00000000
Si      -0.00146610       2.71446690       2.71327831       0.00000000
Si       2.71207323       0.00061902      -2.71591862       0.00000000
Si       2.71443528       2.71452229      -0.00078866       0.00000000
Si       0.00027693      -2.71622718       2.71303828       0.00000000
Si      -2.71554300      -0.00125433       2.71386124       0.00000000
