10
Lattice="16.28999089631971 0.0 0.0 0.0 16.28999089631971 0.0 0.0 0.0 34.28971787722196" Properties=species:S:1:pos:R:3:initial_magmoms:R:1 pbc="T T T"
Si      -1.21989294      -1.77575661       0.82346804       0.00000000
Si      -1.48242258       1.67642019      -0.69783044       0.00000000
Si       1.32827031       0.10586871       2.00979007       0.00000000
Si       1.59596388       0.12261483      -1.92399715       0.00000000
Si       2.80021842       1.94947317      -1.02131982       0.00000000
Si       0.50275827      -3.44207700       0.89194464       0.00000000
Si      -2.54221740      -2.33124561      -1.01696502       0.00000000
Si       3.18687786       1.30111488       1.22469225       0.00000000
Si      -0.30081114       3.65472570      -0.44148036       0.00000000
Si       2.97088875      -1.88095743      -1.27499529       0.00000000
