10
Lattice="16.28999089631971 0.0 0.0 0.0 16.28999089631971 0.0 0.0 0.0 34.28971787722196" Properties=species:S:1:pos:R:3:initial_magmoms:R:1 pbc="T T T"
Si       1.12355388      -1.50286653      -1.38252791       0.00000000
Si      -1.97496702      -1.00893744       0.81492989       0.00000000
Si       0.23058495       1.84282158      -1.49928446       0.00000000
Si       1.87302420       0.75141616       1.32872731       0.00000000
Si       2.52511290       1.58115531      -0.83262339       0.00000000
Si      -1.09879308       3.22184339      -0.20323527       0.00000000
Si      -1.28229993      -2.05788312       2.76327275       0.00000000
Si       2.98216143      -0.30762036      -2.16762573       0.00000000
Si      -0.71746047       3.00446963       2.09434856       0.00000000
Si       1.93245012      -3.20188095       0.14792593       0.00000000
