10
Lattice="16.28999089631971 0.0 0.0 0.0 16.28999089631971 0.0 0.0 0.0 34.28971787722196" Properties=species:S:1:pos:R:3:initial_magmoms:R:1 pbc="T T T"
Si       1.20392874      -1.95355870       0.46620326       0.00000000
Si      -2.29752531      -0.69533865       0.41013954       0.00000000
Si      -0.38045295       0.92975175       2.39270356       0.00000000
Si       0.29087424       0.14677290      -2.66235805       0.00000000
Si      -2.90437668       1.62807147       0.25724161       0.00000000
Si      -2.73538422      -2.54439116      -0.92417699       0.00000000
Si       3.38199852      -2.00733199      -0.49483520       0.00000000
Si      -1.39220856      -0.80956576       3.68768089       0.00000000
Si       2.44304388      -2.09342953       2.50254734       0.00000000
Si      -1.72186929      -0.53064675      -3.68830699       0.00000000
