10
Lattice="16.28999089631971 0.0 0.0 0.0 16.28999089631971 0.0 0.0 0.0 34.28971787722196" Properties=species:S:1:pos:R:3:initial_magmoms:R:1 pbc="T T T"
Si       1.27174401      -1.42887735       1.28680468       0.00000000
Si       1.11718449       1.36995642      -1.48554255       0.00000000
Si      -1.48393755       1.29863880       1.28100285       0.00000000
Si      -0.78504768      -1.92103083      -1.53018778       0.00000000
Si      -0.31004757       0.12597057      -2.97224268       0.00000000
Si       2.56644063       2.61317664      -0.06329885       0.00000000
Si       2.59626762      -0.06501339       2.65667281       0.00000000
Si      -0.11712510       2.65699674       2.65588415       0.00000000
Si       2.69320941      -2.67292836      -0.30551470       0.00000000
Si      -0.11705994      -2.77954641       2.65122075       0.00000000
