10
Lattice="16.28999089631971 0.0 0.0 0.0 16.28999089631971 0.0 0.0 0.0 34.28971787722196" Properties=species:S:1:pos:R:3:initial_magmoms:R:1 pbc="T T T"
Si       1.54441647      -1.62873936      -0.60555676       0.00000000
Si      -1.15701354      -0.45937800       1.97505456       0.00000000
Si       1.38351200       1.84298544       0.41305417       0.00000000
Si      -0.92266560       0.55555416      -2.08944513       0.00000000
Si       0.81904491      -0.23739417       3.46089745       0.00000000
Si       2.51907161       0.95996970       2.35340752       0.00000000
Si       0.93918366      -2.08362132      -2.80229447       0.00000000
Si      -1.33100703      -2.77943238       2.04744020       0.00000000
Si       3.49440767      -0.50455017      -1.24379163       0.00000000
Si       0.77965569       1.56970440      -3.32898483       0.00000000
