10
Lattice="16.28999089631971 0.0 0.0 0.0 16.28999089631971 0.0 0.0 0.0 34.28971787722196" Properties=species:S:1:pos:R:3:initial_magmoms:R:1 pbc="T T T"
Si       1.80696825      -1.44031293      -0.22188889       0.00000000
Si      -1.29064041      -1.39100310       1.36898346       0.00000000
Si      -1.19182527      -0.10353924      -2.06753398       0.00000000
Si       0.89577081       2.13874668       0.67111873       0.00000000
Si      -2.87529903       1.45559295      -1.29886095       0.00000000
Si      -1.73910411      -3.22289505      -0.09354240       0.00000000
Si       1.74879666       2.89787697      -1.48532854       0.00000000
Si       3.50928954      -0.42616269      -1.46142859       0.00000000
Si       2.72963385      -1.99586709       1.86755624       0.00000000
Si       2.39459742       1.09449252      -2.87783476       0.00000000
