10
Lattice="16.28999089631971 0.0 0.0 0.0 16.28999089631971 0.0 0.0 0.0 34.28971787722196" Properties=species:S:1:pos:R:3:initial_magmoms:R:1 pbc="T T T"
Si       1.36121588       1.34697123       1.36268787       0.00000000
Si       1.31554523      -1.28961414      -1.46419577       0.00000000
Si      -1.35312885      -1.36805049       1.36001327       0.00000000
Si      -1.46616516       1.23720921      -1.40538888       0.00000000
Si      -0.55306179      -2.31262614      -2.67352176       0.00000000
Si      -2.16562518      -0.49717080      -2.90348489       0.00000000
Si       2.72809349       2.68794774      -0.01225858       0.00000000
Si      -2.71827972       2.70157530      -0.01001946       0.00000000
Si       0.00587379       2.70400340       2.72004711       0.00000000
Si      -2.71114470      -0.00949707       2.71905270       0.00000000
