10
Lattice="16.28999089631971 0.0 0.0 0.0 16.28999089631971 0.0 0.0 0.0 34.28971787722196" Properties=species:S:1:pos:R:3:initial_magmoms:R:1 pbc="T T T"
Si       1.11469212      -1.52065521       1.41640617       0.00000000
Si      -0.64580076       1.80338445       1.39250622       0.00000000
Si       1.78890168       0.88210350      -1.31439420       0.00000000
Si      -2.05514640      -0.78289740      -1.03637301       0.00000000
Si       0.69162453       0.44009064      -3.32209259       0.00000000
Si       1.70148791      -2.69013060      -1.56453783       0.00000000
Si       3.07075364      -0.31410378       1.89659965       0.00000000
Si      -0.58762917      -2.53480545       2.65594587       0.00000000
Si       3.34535417      -0.96545943      -1.44764412       0.00000000
Si      -2.11457232       3.17039971       0.14442837       0.00000000
