10
Lattice="16.28999089631971 0.0 0.0 0.0 16.28999089631971 0.0 0.0 0.0 34.28971787722196" Properties=species:S:1:pos:R:3:initial_magmoms:R:1 pbc="T T T"
Si      -1.46877156       1.36701526      -1.24807785       0.00000000
Si       0.64580076      -1.80338445      -1.39250622       0.00000000
Si       1.79460414       1.51270603       0.38853701       0.00000000
Si      -0.85302585      -0.75913029       2.15644727       0.00000000
Si      -1.74879666      -2.89787697       1.48532854       0.00000000
Si      -1.84811679       3.20315876       0.16177898       0.00000000
Si       2.43470244      -0.92128095      -2.70690042       0.00000000
Si       1.76049288      -3.32403966       0.02389995       0.00000000
Si      -1.40934564      -2.58628185      -2.42887923       0.00000000
Si       1.50664581       2.45626877       2.54632158       0.00000000
