10
Lattice="16.28999089631971 0.0 0.0 0.0 16.28999089631971 0.0 0.0 0.0 34.28971787722196" Properties=species:S:1:pos:R:3:initial_magmoms:R:1 pbc="T T T"
Si       1.35239580       1.35031068       1.38626206       0.00000000
Si      -1.35831233      -1.36329381       1.38413610       0.00000000
Si       1.39559688      -1.40033727      -1.38364575       0.00000000
Si      -1.40482679       1.42858413      -1.43777553       0.00000000
Si      -0.19510533      -2.53806345      -2.63705428       0.00000000
Si       2.71352304       2.71453302       0.01347587       0.00000000
Si      -2.72037203       2.71819827       0.02642024       0.00000000
Si      -2.72118653      -2.72108160       0.03944348       0.00000000
Si       2.70738171      -2.74059702       0.02438343       0.00000000
Si      -0.00234576       2.70819621       2.74667309       0.00000000
