10
Lattice="16.28999089631971 0.0 0.0 0.0 16.28999089631971 0.0 0.0 0.0 34.28971787722196" Properties=species:S:1:pos:R:3:initial_magmoms:R:1 pbc="T T T"
Si       1.42372971       0.14877657       1.85384034       0.00000000
Si      -1.68866375      -1.63851336       0.20957887       0.00000000
Si      -0.95362475       2.16443601       0.25868178       0.00000000
Si       1.66089582      -0.09110997      -1.97196849       0.00000000
Si       2.54526363       2.01038148       0.97276555       0.00000000
Si      -0.23193702       0.60883875       3.45685126       0.00000000
Si      -2.13600574      -2.00249712      -2.16433391       0.00000000
Si      -1.79965241       2.42937657      -2.12757531       0.00000000
Si      -3.55018463      -0.26280657       1.10289510       0.00000000
Si      -1.04658037      -2.93619105       2.11835137       0.00000000
