10
Lattice="16.28999089631971 0.0 0.0 0.0 16.28999089631971 0.0 0.0 0.0 34.28971787722196" Properties=species:S:1:pos:R:3:initial_magmoms:R:1 pbc="T T T"
Si      -1.35607025      -1.35760903      -1.35660487       0.00000000
Si       1.35709221      -1.35769591       1.35766785       0.00000000
Si       1.35875379       1.35742615      -1.35670774       0.00000000
Si      -1.35803933       1.35771937       1.35804504       0.00000000
Si       2.71276230      -0.00135696       2.71454703       0.00000000
Si       2.71271343       0.00162737      -2.71547286       0.00000000
Si      -0.00072816      -2.71464120      -2.71396411       0.00000000
Si       2.71403292      -2.71469007       0.00010287       0.00000000
Si      -0.00122990       2.71417138       2.71482135       0.00000000
Si       2.71452162       2.71493701       0.00058293       0.00000000
