10
Lattice="16.28999089631971 0.0 0.0 0.0 16.28999089631971 0.0 0.0 0.0 34.28971787722196" Properties=species:S:1:pos:R:3:initial_magmoms:R:1 pbc="T T T"
Si      -0.82922290       1.82035863       1.22160617       0.00000000
Si      -1.70221770      -1.45196028       0.73318316       0.00000000
Si      -0.64208338       1.29767769      -1.90877250       0.00000000
Si       1.90016008      -1.47520611       0.17179158       0.00000000
Si      -0.39598547       1.02882753       3.36697786       0.00000000
Si      -1.90004346      -2.66791104      -1.37350971       0.00000000
Si       2.04870859      -2.38690854      -2.00546956       0.00000000
Si       1.04658037       2.93619105      -2.11835137       0.00000000
Si      -2.50360425       2.67338448      -1.01545627       0.00000000
Si       0.81464335       3.54502980       1.33849989       0.00000000
