10
Lattice="16.28999089631971 0.0 0.0 0.0 16.28999089631971 0.0 0.0 0.0 34.28971787722196" Properties=species:S:1:pos:R:3:initial_magmoms:R:1 pbc="T T T"
Si      -0.62400474       0.97251300      -1.98578725       0.00000000
Si       0.13468572      -2.30829300      -0.38078753       0.00000000
Si      -1.97620995       0.03924261       1.27605827       0.00000000
Si       2.36485188       0.00617391       0.39176025       0.00000000
Si      -0.84065034      -0.84377313       3.21641162       0.00000000
Si       0.67657257      -2.15034516      -2.68382343       0.00000000
Si       0.92595618       0.04825098      -3.42091562       0.00000000
Si      -2.58006626      -0.23403843      -2.46598073       0.00000000
Si       2.37456072       1.20932073       2.43731451       0.00000000
Si       0.18580374       3.81430350      -0.05894406       0.00000000
