10
Lattice="16.28999089631971 0.0 0.0 0.0 16.28999089631971 0.0 0.0 0.0 34.28971787722196" Properties=species:S:1:pos:R:3:initial_magmoms:R:1 pbc="T T T"
Si      -0.02091636      -2.04649641       1.12079434       0.00000000
Si       0.70309269      -0.75595374      -2.12219183       0.00000000
Si       1.81939752       1.47909942       0.90943241       0.00000000
Si      -1.79278455       1.79763408       0.05589227       0.00000000
Si      -0.69094035      -0.86107311       2.98497240       0.00000000
Si       0.00788436       3.04318377       1.04233943       0.00000000
Si      -0.81744849       0.33311421      -3.54130688       0.00000000
Si      -3.49281125       0.60027021       1.16338220       0.00000000
Si       2.42496198       0.48643569      -2.98999649       0.00000000
Si      -2.06277989      -2.83082733      -1.89474800       0.00000000
