10
Lattice="16.28999089631971 0.0 0.0 0.0 16.28999089631971 0.0 0.0 0.0 34.28971787722196" Properties=species:S:1:pos:R:3:initial_magmoms:R:1 pbc="T T T"
Si       1.35029439      -1.23181722      -1.47144120       0.00000000
Si      -1.35331130       1.47876940      -1.44706119       0.00000000
Si       2.03701563       0.95911352       1.20048369       0.00000000
Si      -1.02017754      -1.88053389       1.51471484       0.00000000
Si       2.50844823      -2.67981903       0.01179567       0.00000000
Si      -2.70921243      -2.65974975      -0.08466136       0.00000000
Si      -2.77333082       2.63608757       0.12063129       0.00000000
Si       0.00053757      -2.57647527      -2.83682424       0.00000000
Si       3.65544342      -0.84745467       0.89808250       0.00000000
Si       1.39787748      -0.75984705       3.54168407       0.00000000
