10
Lattice="10.86 0.0 0.0 0.0 10.86 0.0 0.0 0.0 10.86" Properties=species:S:1:pos:R:3:initial_magmoms:R:1 pbc="T T T"
Si       1.15714386       0.89942520       1.69107576       0.00000000
Si      -1.59152214      -1.51910766       1.06436688       0.00000000
Si       1.12347786      -1.51910766      -1.65063312       0.00000000
Si      -1.59152214       1.19589234      -1.65063312       0.00000000
Si       2.54080560       2.04284202      -0.01489992       0.00000000
Si       1.00953474      -1.01112030       3.26282184       0.00000000
Si       2.20027944      -2.87298042      -0.27349824       0.00000000
Si      -2.94902214      -0.16160766       2.42186688       0.00000000
Si      -0.26090064       2.74168302       2.64896034       0.00000000
Si       2.48097786      -0.16160766      -3.00813312       0.00000000
