10
Lattice="10.86 0.0 0.0 0.0 10.86 0.0 0.0 0.0 10.86" Properties=species:S:1:pos:R:3:initial_magmoms:R:1 pbc="T T T"
Si      -1.15714386      -0.89942520      -1.69107576       0.00000000
Si       1.38366174       1.14341682      -1.70597568       0.00000000
Si      -0.14760912      -1.91054550       1.57174608       0.00000000
Si      -1.41804450       1.84225782       0.95788458       0.00000000
Si      -2.74866600       0.29646714       2.08829112       0.00000000
Si      -0.03366600       3.01146714       2.08829112       0.00000000
Si      -2.74866600      -2.41853286      -0.62670888       0.00000000
Si      -1.33000248      -0.97939824       3.44562822       0.00000000
Si       1.16518026       1.46409090       3.42862146       0.00000000
Si       2.68133400       3.01146714      -0.62670888       0.00000000
