10
Lattice="10.86 0.0 0.0 0.0 10.86 0.0 0.0 0.0 10.86" Properties=species:S:1:pos:R:3:initial_magmoms:R:1 pbc="T T T"
Si       1.29633648       1.27586538       1.35766290       0.00000000
Si      -1.41866352       1.27586538      -1.35733710       0.00000000
Si       1.18239336      -0.93114726      -1.87388214       0.00000000
Si      -1.41866352      -1.43913462       1.35766290       0.00000000
Si       2.49518274       2.44348914      -0.01700676       0.00000000
Si       2.46212490      -2.61159108      -0.44478216       0.00000000
Si      -0.08804202       2.82165606      -2.48774364       0.00000000
Si      -0.06116352       2.63336538       2.71516290       0.00000000
Si       2.65383648      -0.08163462       2.71516290       0.00000000
Si       0.09020316      -2.84617794      -2.54202192       0.00000000
