10
Lattice="16.28999089631971 0.0 0.0 0.0 16.28999089631971 0.0 0.0 0.0 34.46413024517268" Properties=species:S:1:pos:R:3:initial_magmoms:R:1 pbc="T T T"
Si      -1.35726651       1.31926194      -1.39621852       0.00000000
Si       1.34154666       1.36752921       1.36719281       0.00000000
Si      -1.37210670      -1.34758373       1.36667585       0.00000000
Si       1.40248755      -1.35583788      -1.44497840       0.00000000
Si       2.69496873      -2.71385581      -0.00146817       0.00000000
Si       2.70037701       2.72235222      -0.02919803       0.00000000
Si       2.69693982       0.00907353       2.72735494       0.00000000
Si      -0.01726740      -2.70585012       2.72704476       0.00000000
Si      -2.73261492      -2.71823804      -0.01438189       0.00000000
Si      -0.01757691       2.72562651       2.72783743       0.00000000
