10
Lattice="16.28999089631971 0.0 0.0 0.0 16.28999089631971 0.0 0.0 0.0 34.46413024517268" Properties=species:S:1:pos:R:3:initial_magmoms:R:1 pbc="T T T"
Si      -1.35738054      -1.35567777      -1.35757731       0.00000000
Si      -1.35772263       1.35707266       1.35781856       0.00000000
Si       1.35806472       1.35917407      -1.35699142       0.00000000
Si       1.35943308      -1.35421675       1.36057569       0.00000000
Si      -2.70056760      -0.01569704       2.70929572       0.00000000
Si       0.00100998      -2.71325167      -2.71546480       0.00000000
Si      -2.71392540       0.00166158      -2.71522355       0.00000000
Si      -2.71437664      -2.71559743      -0.00082714       0.00000000
Si       2.71437012       2.71645687      -0.00099946       0.00000000
Si       0.00127062       2.71613107      -2.71512016       0.00000000
