10
Lattice="16.28999089631971 0.0 0.0 0.0 16.28999089631971 0.0 0.0 0.0 34.46413024517268" Properties=species:S:1:pos:R:3:initial_magmoms:R:1 pbc="T T T"
Si       2.05395723       0.53980173       0.95558747       0.00000000
Si      -0.56633814      -1.97297054       1.11364006       0.00000000
Si      -1.64586015       1.20977685       1.17712303       0.00000000
Si       1.39351176       0.29177508      -2.15266524       0.00000000
Si      -1.90045656      -0.75315772       2.60056133       0.00000000
Si       3.09710367      -1.65670019       0.75404113       0.00000000
Si       2.51125011      -2.26218320      -1.48688680       0.00000000
Si      -1.36055709      -3.39498980      -0.57720558       0.00000000
Si       1.37661903      -2.49517907       2.37254652       0.00000000
Si       3.04101720       2.09016990      -0.54749748       0.00000000
