10
Lattice="16.28999089631971 0.0 0.0 0.0 16.28999089631971 0.0 0.0 0.0 34.46413024517268" Properties=species:S:1:pos:R:3:initial_magmoms:R:1 pbc="T T T"
Si       1.64586015      -1.20977685      -1.17712303       0.00000000
Si       0.62680662       2.16761256       0.71013380       0.00000000
Si      -1.73263698       0.47456028      -1.55457439       0.00000000
Si      -0.25459641      -1.96293457       1.42343830       0.00000000
Si      -1.32299235       2.30299875       2.05120279       0.00000000
Si       1.07952201      -3.18274739      -0.06348296       0.00000000
Si       3.69981738      -0.66997512      -0.22153555       0.00000000
Si       2.51273250       1.97625393       2.20401683       0.00000000
Si      -2.74048136       2.59480152      -1.15379080       0.00000000
Si       0.65029680       3.76561269      -1.11553559       0.00000000
