10
Lattice="16.28999089631971 0.0 0.0 0.0 16.28999089631971 0.0 0.0 0.0 34.46413024517268" Properties=species:S:1:pos:R:3:initial_magmoms:R:1 pbc="T T T"
Si      -1.20550887       0.41655159      -2.02949037       0.00000000
Si       2.28633408      -0.77476869       0.00192999       0.00000000
Si       0.17790309       1.81280007       1.61723022       0.00000000
Si      -1.20479211      -1.46693079       1.55877902       0.00000000
Si       2.24380089      -1.36067112       2.24537380       0.00000000
Si      -2.41808760       2.18794248      -1.21641216       0.00000000
Si       1.70469963       0.78828939       3.11972928       0.00000000
Si      -2.01168468       1.79346384       2.50943812       0.00000000
Si       0.48839049      -2.97204208       2.26877496       0.00000000
Si      -3.49591545       1.45539747       0.75314506       0.00000000
