10
Lattice="16.28999089631971 0.0 0.0 0.0 16.28999089631971 0.0 0.0 0.0 34.46413024517268" Properties=species:S:1:pos:R:3:initial_magmoms:R:1 pbc="T T T"
Si      -1.69318260       1.50511129      -0.70999594       0.00000000
Si       1.75541040       1.61137096      -0.02340116       0.00000000
Si       0.72935217      -1.78236450      -1.45917763       0.00000000
Si      -0.03461625      -0.95431122       2.34245931       0.00000000
Si      -2.13584706       2.48127325       1.50694494       0.00000000
Si       1.79794359       2.19727339      -2.26684497       0.00000000
Si      -0.48808098      -3.60327699      -0.54098375       0.00000000
Si       2.40945390       0.14832697       2.79097576       0.00000000
Si      -0.48839049       2.97204208      -2.26877496       0.00000000
Si      -0.28466775      -3.28071870       1.90111142       0.00000000
