10
Lattice="16.28999089631971 0.0 0.0 0.0 16.28999089631971 0.0 0.0 0.0 34.46413024517268" Properties=species:S:1:pos:R:3:initial_magmoms:R:1 pbc="T T T"
Si       1.35539316      -1.35845568       1.36016212       0.00000000
Si      -1.34154666      -1.36752921      -1.36719281       0.00000000
Si      -1.35912357       1.35809730       1.36064462       0.00000000
Si       1.35883035       1.35482301      -1.39639084       0.00000000
Si      -2.71365336      -2.71511294      -0.00051696       0.00000000
Si      -2.71482624       2.71441899       0.00165428       0.00000000
Si      -0.00097740      -2.71442551       2.71732587       0.00000000
Si       2.71456560       0.00022806       2.71732587       0.00000000
Si       2.71767699      -2.71454605       0.00199892       0.00000000
Si       2.71749780       2.71503801       0.00134410       0.00000000
