10
Lattice="16.28999089631971 0.0 0.0 0.0 16.28999089631971 0.0 0.0 0.0 34.46413024517268" Properties=species:S:1:pos:R:3:initial_magmoms:R:1 pbc="T T T"
Si      -1.79900244      -1.34213310       0.72857212       0.00000000
Si      -0.91603557       2.25761481       0.11459330       0.00000000
Si      -0.33559029      -0.62858223       2.55148438       0.00000000
Si       1.71989820       0.14413392      -2.18247673       0.00000000
Si       0.76328424      -2.61778671      -0.58795839       0.00000000
Si       2.59745679       1.93686471      -0.84233828       0.00000000
Si       1.54386846       1.05674859       2.84615286       0.00000000
Si      -1.14486120      -2.70663237      -2.15793826       0.00000000
Si      -1.02843657       2.66450643      -2.32822562       0.00000000
Si      -3.04378650       1.77624531      -1.11112418       0.00000000
