10
Lattice="16.28999089631971 0.0 0.0 0.0 16.28999089631971 0.0 0.0 0.0 34.46413024517268" Properties=species:S:1:pos:R:3:initial_magmoms:R:1 pbc="T T T"
Si       1.21257873      -1.77139089      -0.81307822       0.00000000
Si       0.78947856       1.95356196       0.97326758       0.00000000
Si      -1.07782785      -0.73254501       1.96955722       0.00000000
Si      -1.56268341       0.53300880      -1.69353384       0.00000000
Si      -1.00778085      -2.72199384      -1.31122303       0.00000000
Si      -2.77929717       0.83223981       1.73023816       0.00000000
Si      -3.42961515       0.12057858      -0.38972060       0.00000000
Si       2.41808760      -2.18794248       1.21641216       0.00000000
Si      -1.35449721       2.71438641       1.80557679       0.00000000
Si       2.02316913       2.97074214      -0.73229425       0.00000000
