10
Lattice="16.28999089631971 0.0 0.0 0.0 16.28999089631971 0.0 0.0 0.0 34.46413024517268" Properties=species:S:1:pos:R:3:initial_magmoms:R:1 pbc="T T T"
Si      -1.00207935      -0.07617204       2.06767665       0.00000000
Si      -1.48423077      -0.33806637      -1.75629306       0.00000000
Si       2.18958777       0.01933623      -0.89220790       0.00000000
Si       0.36422811      -2.28423267       1.26628178       0.00000000
Si       2.22646833       2.36270160      -1.27696567       0.00000000
Si       0.80689257      -3.26039463      -0.95065910       0.00000000
Si       0.38307564       2.34804060      -2.75258269       0.00000000
Si       2.01168468      -1.79346384      -2.50943812       0.00000000
Si       2.37164481      -1.50019497       2.49234390       0.00000000
Si      -0.40640292       0.39447864      -3.72585027       0.00000000
