10
Lattice="16.28999089631971 0.0 0.0 0.0 16.28999089631971 0.0 0.0 0.0 34.46413024517268" Properties=species:S:1:pos:R:3:initial_magmoms:R:1 pbc="T T T"
Si       1.38142458      -1.32379056       1.41146546       0.00000000
Si      -1.34478837       1.39735620       1.40120893       0.00000000
Si      -1.14217335      -1.53929097      -1.45042515       0.00000000
Si       1.41102351       1.23149142      -1.53896355       0.00000000
Si      -1.95225876       0.01752804      -3.06710394       0.00000000
Si       2.62282032       2.58637959       0.00256413       0.00000000
Si      -2.71386513      -2.67499719       0.06828727       0.00000000
Si       2.68172496      -2.76789906      -0.02445921       0.00000000
Si      -2.70982521       2.74602159      -0.16011355       0.00000000
Si       0.02754639      -2.68697034       2.78213225       0.00000000
