10
Lattice="16.28999089631971 0.0 0.0 0.0 16.28999089631971 0.0 0.0 0.0 34.46413024517268" Properties=species:S:1:pos:R:3:initial_magmoms:R:1 pbc="T T T"
Si       1.35615879       1.35860229       1.35616428       0.00000000
Si       1.35653346      -1.35752715      -1.35712928       0.00000000
Si      -1.35757602      -1.35738054       1.35699142       0.00000000
Si      -1.35902583       1.35788553      -1.35706035       0.00000000
Si       0.00394218       2.70822879       2.71439642       0.00000000
Si       2.71384884      -0.00081450      -2.71422409       0.00000000
Si       2.71425609       2.71409319      -0.00017232       0.00000000
Si       2.71370223      -2.71474479       0.00103392       0.00000000
Si       2.71329498       0.00399105       2.71525802       0.00000000
Si      -0.00175932       2.71526607      -2.71363820       0.00000000
