10
Lattice="16.28999089631971 0.0 0.0 0.0 16.28999089631971 0.0 0.0 0.0 34.46413024517268" Properties=species:S:1:pos:R:3:initial_magmoms:R:1 pbc="T T T"
Si       2.19361140       0.73889811       0.10270317       0.00000000
Si      -1.44511848       1.79359416      -0.64265300       0.00000000
Si      -0.34549461       0.44092143       2.36268977       0.00000000
Si      -0.19155411      -1.57273434      -1.84824341       0.00000000
Si      -1.10560230       2.53584801       1.59479405       0.00000000
Si      -2.16604872      -1.05205707       2.48262501       0.00000000
Si      -3.18822993      -1.38352599       0.29018814       0.00000000
Si       0.65049228       0.14480181      -3.44155551       0.00000000
Si       2.60543889       0.80457939      -2.20536093       0.00000000
Si      -1.98922077      -2.96381889      -1.00673227       0.00000000
