10
Lattice="16.28999089631971 0.0 0.0 0.0 16.28999089631971 0.0 0.0 0.0 34.46413024517268" Properties=species:S:1:pos:R:3:initial_magmoms:R:1 pbc="T T T"
Si      -1.35076680      -1.46704549       1.16251023       0.00000000
Si      -1.55305602       1.75860976       0.27523070       0.00000000
Si      -0.18440280      -0.50093379      -2.32309046       0.00000000
Si       2.05162776       0.76275319       0.97864399       0.00000000
Si      -0.16944858       1.69563262      -3.10777022       0.00000000
Si      -0.23949558       3.68508145       0.17301003       0.00000000
Si      -2.23878520       2.22411280      -1.93974573       0.00000000
Si      -3.66494768      -1.10605044       0.33602546       0.00000000
Si      -1.07473275      -3.71361568       0.47036671       0.00000000
Si      -1.10219769      -1.46401555       3.47960393       0.00000000
