10
Lattice="16.28999089631971 0.0 0.0 0.0 16.28999089631971 0.0 0.0 0.0 34.46413024517268" Properties=species:S:1:pos:R:3:initial_magmoms:R:1 pbc="T T T"
Si       1.31356044       1.92647169      -0.10222067       0.00000000
Si       1.55305602      -1.75860976      -0.27523070       0.00000000
Si      -0.68572918       0.46550304      -2.21497642       0.00000000
Si      -1.65026171       0.41285376       1.68347031       0.00000000
Si       0.20228922      -3.22565525       0.88727953       0.00000000
Si      -0.38790888       3.49125651      -0.34153972       0.00000000
Si      -2.11189166      -2.86466019       0.06079476       0.00000000
Si      -2.16625139       2.70989037       1.05932456       0.00000000
Si       1.38360744      -0.06297714      -3.38300092       0.00000000
Si       1.36865322      -2.25954355      -2.59832116       0.00000000
