10
Lattice="16.28999089631971 0.0 0.0 0.0 16.28999089631971 0.0 0.0 0.0 34.46413024517268" Properties=species:S:1:pos:R:3:initial_magmoms:R:1 pbc="T T T"
Si       1.45725453      -0.83834856      -1.60582258       0.00000000
Si      -1.97441316      -1.29889944      -0.12455344       0.00000000
Si       0.21092292       2.31687783      -0.51031066       0.00000000
Si       1.22412834      -0.58544631       1.98678929       0.00000000
Si       2.94368445       1.01507877      -1.18711763       0.00000000
Si       2.09499174      -2.95388199      -0.86629086       0.00000000
Si      -1.73203425       2.83908636      -1.76921711       0.00000000
Si      -1.42516323      -3.48029334       0.59471336       0.00000000
Si       2.54026260      -2.51418231       1.43691379       0.00000000
Si       0.31485312      -1.15470036      -3.67246531       0.00000000
