10
Lattice="16.28999089631971 0.0 0.0 0.0 16.28999089631971 0.0 0.0 0.0 34.46413024517268" Properties=species:S:1:pos:R:3:initial_magmoms:R:1 pbc="T T T"
Si      -1.21743315      -1.82091249       0.91819387       0.00000000
Si       0.63190539       0.32400810      -2.29893109       0.00000000
Si      -0.72935217       1.78236450       1.45917763       0.00000000
Si       2.17911330      -0.75916287       0.73925601       0.00000000
Si       2.01578976       2.25528112      -2.17110356       0.00000000
Si       1.80416637      -1.73499903      -2.76950459       0.00000000
Si      -1.01401992      -1.49835420       3.36028904       0.00000000
Si       1.02605823       3.39373547       1.43577647       0.00000000
Si       2.68187157      -2.64686436      -0.67939178       0.00000000
Si      -0.76396842       0.82805328       3.80163694       0.00000000
