10
Lattice="16.28999089631971 0.0 0.0 0.0 16.28999089631971 0.0 0.0 0.0 34.46413024517268" Properties=species:S:1:pos:R:3:initial_magmoms:R:1 pbc="T T T"
Si      -1.23831693       1.29859645       1.50036228       0.00000000
Si       1.63945818      -1.26249797       1.20603845       0.00000000
Si      -1.45647261      -1.61655511      -1.05422387       0.00000000
Si       1.25468838       1.58637559      -1.33824293       0.00000000
Si      -2.24010143       2.54544934      -0.28446709       0.00000000
Si       0.19619676      -2.73777952       2.63968645       0.00000000
Si      -0.11161908       3.79443622      -0.53684806       0.00000000
Si      -2.59764412      -0.07523374       2.85960563       0.00000000
Si       3.35591919      -1.84920889      -0.50272855       0.00000000
Si       0.23255604       2.64193501       2.82045091       0.00000000
