10
Lattice="16.28999089631971 0.0 0.0 0.0 16.28999089631971 0.0 0.0 0.0 34.46413024517268" Properties=species:S:1:pos:R:3:initial_magmoms:R:1 pbc="T T T"
Si      -1.35723393       1.35734589      -1.35788749       0.00000000
Si       1.35783666      -1.35735070      -1.35747392       0.00000000
Si       1.35848826       1.35745178       1.35723267       0.00000000
Si      -1.35726651      -1.35954985       1.35675017       0.00000000
Si       0.00584811      -2.71399819       2.71212178       0.00000000
Si       2.71318095      -0.00136171      -2.71474106       0.00000000
Si      -0.00086337       2.71331572      -2.71505123       0.00000000
Si      -2.71448415      -2.71510591      -0.00086160       0.00000000
Si      -2.71505430       2.71510762       0.00058589       0.00000000
Si      -2.71507059      -0.00160793      -2.71536141       0.00000000
