10
Lattice="16.28999089631971 0.0 0.0 0.0 16.28999089631971 0.0 0.0 0.0 34.46413024517268" Properties=species:S:1:pos:R:3:initial_magmoms:R:1 pbc="T T T"
Si       0.03352482      -1.08469734       2.09934920       0.00000000
Si      -2.23515090      -0.19930815      -0.84133882       0.00000000
Si       0.59140845       2.20612212       0.72640088       0.00000000
Si       1.77699465      -1.05660035      -1.27021069       0.00000000
Si       2.83019202       1.92625992       0.19944403       0.00000000
Si      -0.91367352       0.63965943       3.46278542       0.00000000
Si      -2.87881767      -2.32599113       0.20585436       0.00000000
Si       3.35464857       0.69035391      -1.72462051       0.00000000
Si      -1.35035955      -3.01597037       1.97152167       0.00000000
Si      -2.15145288      -0.69196662      -3.15774323       0.00000000
