10
Lattice="16.28999089631971 0.0 0.0 0.0 16.28999089631971 0.0 0.0 0.0 34.46413024517268" Properties=species:S:1:pos:R:3:initial_magmoms:R:1 pbc="T T T"
Si      -0.98316666       1.36467846      -1.71931303       0.00000000
Si      -0.23887656      -2.26277874      -0.83933990       0.00000000
Si       2.39182812       0.42148746      -0.08936554       0.00000000
Si      -0.92007549       0.55886103       2.19577989       0.00000000
Si      -2.86262541      -0.32065236      -2.01398150       0.00000000
Si      -2.69216685       2.38943349      -0.41425908       0.00000000
Si      -1.88524170       2.68462458       1.74185258       0.00000000
Si       2.02738824      -3.02282127      -0.88659025       0.00000000
Si       2.77980705       1.17750636      -2.45257227       0.00000000
Si       0.81635706       2.41943967      -3.04180584       0.00000000
