10
Lattice="16.28999089631971 0.0 0.0 0.0 16.28999089631971 0.0 0.0 0.0 34.46413024517268" Properties=species:S:1:pos:R:3:initial_magmoms:R:1 pbc="T T T"
Si       1.96344999      -1.24193331       0.58923356       0.00000000
Si       1.04549220       1.98444780       0.89351754       0.00000000
Si      -1.79952372      -1.05476121       1.32249281       0.00000000
Si      -0.74593539      -0.17464509      -2.36599833       0.00000000
Si      -2.46176109       1.53718956      -2.25057789       0.00000000
Si       3.13168734       2.22022926      -0.24197279       0.00000000
Si      -0.07659558       3.84882201      -0.29963132       0.00000000
Si       1.04583429       1.70303805       3.31031602       0.00000000
Si      -2.27020698       3.10992390      -0.40233448       0.00000000
Si       1.57547106      -1.99795221       2.95244030       0.00000000
