10
Lattice="16.28999089631971 0.0 0.0 0.0 16.28999089631971 0.0 0.0 0.0 34.46413024517268" Properties=species:S:1:pos:R:3:initial_magmoms:R:1 pbc="T T T"
Si       0.76830156      -2.06954676       0.77826942       0.00000000
Si      -1.66869873      -0.59562756      -1.57383985       0.00000000
Si      -1.16061363       1.58403960       1.40448302       0.00000000
Si       2.12133267       1.10280042      -0.47112492       0.00000000
Si      -0.32255829       3.45631446       0.25830880       0.00000000
Si      -2.63386494       1.53013599      -2.02776716       0.00000000
Si      -0.76782915       3.01661478      -2.04489585       0.00000000
Si       0.81130716      -1.87387128       3.13827099       0.00000000
Si       3.00708513      -2.34940896       0.25131258       0.00000000
Si       2.01491010       3.27588642       0.48187774       0.00000000
