10
Lattice="16.28999089631971 0.0 0.0 0.0 16.28999089631971 0.0 0.0 0.0 34.46413024517268" Properties=species:S:1:pos:R:3:initial_magmoms:R:1 pbc="T T T"
Si       1.49406993      -1.20801753       1.35896966       0.00000000
Si      -1.26405513       1.49441202       1.37501962       0.00000000
Si      -0.85424760      -1.74249243      -1.41058804       0.00000000
Si       0.89712288       1.77005511      -1.39918041       0.00000000
Si      -1.22238531      -0.53496360      -3.42749900       0.00000000
Si      -2.66155794      -2.63917548      -0.06792195       0.00000000
Si       0.11308518      -2.55790467       2.73832487       0.00000000
Si      -2.59854822       0.15739398       2.74587252       0.00000000
Si      -2.72046258       2.71510317      -0.04089861       0.00000000
Si       2.65554693       2.79580383      -0.03854470       0.00000000
