10
Lattice="16.28999089631971 0.0 0.0 0.0 16.28999089631971 0.0 0.0 0.0 34.46413024517268" Properties=species:S:1:pos:R:3:initial_magmoms:R:1 pbc="T T T"
Si       1.35210258       1.35645201       1.34958163       0.00000000
Si      -1.35713619       1.35461124      -1.35909374       0.00000000
Si       1.35793440      -1.36142046      -1.35654339       0.00000000
Si      -1.35130437      -1.37099898       1.38421810       0.00000000
Si      -2.70935280       2.70423774      -0.00086160       0.00000000
Si       2.71427238       2.70949941       0.00099946       0.00000000
Si       0.00096111       2.71010214      -2.71543034       0.00000000
Si      -2.71329498      -0.00399105      -2.71525802       0.00000000
Si       2.71534752      -0.00368154      -2.71518909       0.00000000
Si       0.00040725      -2.71873584      -2.71422409       0.00000000
