10
Lattice="16.28999089631971 0.0 0.0 0.0 16.28999089631971 0.0 0.0 0.0 34.46413024517268" Properties=species:S:1:pos:R:3:initial_magmoms:R:1 pbc="T T T"
Si      -0.41182749      -0.06568128       2.30806409       0.00000000
Si      -1.95494661      -0.65977758      -1.23619458       0.00000000
Si       0.67204395       1.97345205      -1.25166898       0.00000000
Si       1.84542894      -1.68228459      -0.04580285       0.00000000
Si      -0.68869233      -1.99392858      -2.69492417       0.00000000
Si       2.04657786       0.72495387      -2.68951330       0.00000000
Si      -2.60543889      -0.80457939       2.20536093       0.00000000
Si       0.61012566      -3.32972487      -1.25973359       0.00000000
Si       2.03867721       2.29946382       1.99799014       0.00000000
Si      -2.79699300      -2.37731373       0.35711752       0.00000000
