10
Lattice="16.28999089631971 0.0 0.0 0.0 16.28999089631971 0.0 0.0 0.0 34.46413024517268" Properties=species:S:1:pos:R:3:initial_magmoms:R:1 pbc="T T T"
Si       1.36159965      -1.76246397       0.71409718       0.00000000
Si       1.37226960       1.86417873       0.44620734       0.00000000
Si      -1.88139726       0.04862565       1.45621371       0.00000000
Si      -0.00034209       0.28140975      -2.41679848       0.00000000
Si      -2.51913447       2.16415908       0.71668199       0.00000000
Si       3.08594502       1.10802951      -0.95317498       0.00000000
Si       3.53805768      -0.96687666       0.16242954       0.00000000
Si       1.00776456      -1.86518871       3.02998463       0.00000000
Si       0.52963677      -3.70099026      -0.35787573       0.00000000
Si      -1.04583429      -1.70303805      -3.31031602       0.00000000
