10
Lattice="16.28999089631971 0.0 0.0 0.0 16.28999089631971 0.0 0.0 0.0 34.46413024517268" Properties=species:S:1:pos:R:3:initial_magmoms:R:1 pbc="T T T"
Si       1.47911571      -1.67661567       0.64616834       0.00000000
Si      -0.42375177      -0.28175184      -2.29524343       0.00000000
Si      -2.07146898      -0.57086676       1.04546998       0.00000000
Si       0.67577436       2.12990121       0.88703828       0.00000000
Si      -1.53303561       2.83331970       0.93842433       0.00000000
Si      -2.68117110       0.43165242      -2.13570888       0.00000000
Si       3.53532096      -0.47241000       0.48408344       0.00000000
Si       1.64359584       1.44361980       2.97801269       0.00000000
Si      -2.37654810       2.59341687      -1.26845302       0.00000000
Si      -2.62345563       1.34433225       2.41617813       0.00000000
