10
Lattice="16.28999089631971 0.0 0.0 0.0 16.28999089631971 0.0 0.0 0.0 34.46413024517268" Properties=species:S:1:pos:R:3:initial_magmoms:R:1 pbc="T T T"
Si      -1.35726651      -1.35511623       1.35785303       0.00000000
Si       1.36326123      -1.35641943      -1.35482018       0.00000000
Si      -1.35708732       1.35913986      -1.35888695       0.00000000
Si       1.35796698       1.35979146       1.35764624       0.00000000
Si       2.69775432      -0.01940139      -2.72567308       0.00000000
Si       2.71358820      -2.71244790       0.00068928       0.00000000
Si      -2.71511946      -2.71254564       0.00096500       0.00000000
Si       0.00089595      -2.71371852       2.71443088       0.00000000
Si      -2.71435383       0.00203625       2.71425856       0.00000000
Si       2.71331127       2.71578045       0.00037911       0.00000000
