10
Lattice="16.28999089631971 0.0 0.0 0.0 16.28999089631971 0.0 0.0 0.0 34.46413024517268" Properties=species:S:1:pos:R:3:initial_magmoms:R:1 pbc="T T T"
Si      -1.61987760       0.15223005       1.63825335       0.00000000
Si       1.32810741       1.92202452      -0.00230910       0.00000000
Si       0.78509655      -2.00117763       0.94907375       0.00000000
Si      -1.26216549       0.32998653      -1.97820772       0.00000000
Si      -0.44044902       3.34797523       0.66343488       0.00000000
Si       0.74090178       0.64557270      -3.41715489       0.00000000
Si      -2.63215449       2.29250799       0.69655493       0.00000000
Si      -0.23195331       0.23192073       3.63441689       0.00000000
Si       2.15956530       2.00173149      -2.17940942       0.00000000
Si      -3.10630752      -1.70119728       1.21954839       0.00000000
