10
Lattice="16.28999089631971 0.0 0.0 0.0 16.28999089631971 0.0 0.0 0.0 34.46413024517268" Properties=species:S:1:pos:R:3:initial_magmoms:R:1 pbc="T T T"
Si       0.58585356       0.60548301       2.24092793       0.00000000
Si      -1.79080857      -1.60964748      -0.07061704       0.00000000
Si       1.95584256      -1.35703845      -0.43383471       0.00000000
Si      -1.11773835       2.55395827      -0.66577844       0.00000000
Si       1.21733541       2.26380405      -1.60857971       0.00000000
Si      -2.51125011       2.26218320       1.48688680       0.00000000
Si      -0.45729288       2.80198493       2.44247428       0.00000000
Si       1.59813045      -1.53479493       3.18262635       0.00000000
Si      -1.03070088      -3.70457406       0.69727867       0.00000000
Si       2.77755903       1.66095025       2.20780788       0.00000000
