10
Lattice="16.28999089631971 0.0 0.0 0.0 16.28999089631971 0.0 0.0 0.0 34.46413024517268" Properties=species:S:1:pos:R:3:initial_magmoms:R:1 pbc="T T T"
Si       1.26216549      -0.32998653       1.97820772       0.00000000
Si      -0.44743743      -2.04955893      -1.12887322       0.00000000
Si      -1.95584256       1.35703845       0.43383471       0.00000000
Si       2.00306727       0.31558617      -1.43894717       0.00000000
Si      -1.36998900       1.96252146       2.67476264       0.00000000
Si       2.59027290       1.59203799       1.97589862       0.00000000
Si      -0.35771211      -0.17775648       3.61646106       0.00000000
Si      -3.74665113      -0.25260903       0.36321767       0.00000000
Si       3.42173079       1.67174496      -0.20120170       0.00000000
Si      -0.73850715       3.62084250      -1.17474500       0.00000000
