10
Lattice="16.28999089631971 0.0 0.0 0.0 16.28999089631971 0.0 0.0 0.0 34.46413024517268" Properties=species:S:1:pos:R:3:initial_magmoms:R:1 pbc="T T T"
Si       1.73749140       1.65143133      -0.00227463       0.00000000
Si       0.50275827      -1.88770149      -1.41864779       0.00000000
Si      -2.17911330       0.75916287      -0.73925601       0.00000000
Si      -0.31886046      -0.66461571       2.49475639       0.00000000
Si      -3.39654645      -1.06174962       0.17893786       0.00000000
Si      -1.54720791       1.08317097      -3.03818710       0.00000000
Si       3.35104848       0.49770837       1.37443028       0.00000000
Si      -0.37494693      -0.97583616      -3.50876060       0.00000000
Si       0.93234186       3.37407181       1.40179482       0.00000000
Si      -2.90846547       2.54152737       0.71992162       0.00000000
