10
Lattice="16.28999089631971 0.0 0.0 0.0 16.28999089631971 0.0 0.0 0.0 34.46413024517268" Properties=species:S:1:pos:R:3:initial_magmoms:R:1 pbc="T T T"
Si      -1.35327546      -1.36018644      -1.35124970       0.00000000
Si      -1.35677781       1.35561308       1.36140283       0.00000000
Si       1.35855924      -1.35719638       1.36085141       0.00000000
Si       1.34785089       1.37724619      -1.37494724       0.00000000
Si       2.61759027      -0.05195370      -2.72387750       0.00000000
Si      -2.71344159       2.71102252      -0.00248142       0.00000000
Si       2.71312786       2.71413391       0.00000000       0.00000000
Si      -2.71536381      -2.71190937       0.00034464       0.00000000
Si       0.00091224       2.71437826       2.71753265       0.00000000
Si      -2.71446786      -0.00108980       2.71773944       0.00000000
