10
Lattice="16.28999089631971 0.0 0.0 0.0 16.28999089631971 0.0 0.0 0.0 34.46413024517268" Properties=species:S:1:pos:R:3:initial_magmoms:R:1 pbc="T T T"
Si      -0.55311066       1.97012075       1.23867600       0.00000000
Si      -1.72522503      -1.67223270       0.18248767       0.00000000
Si       1.78742744      -1.14647295       1.14403744       0.00000000
Si       0.68537147       0.58001522      -2.29410611       0.00000000
Si      -0.43570863      -3.71343486       0.25234650       0.00000000
Si      -2.85663069       2.34259160       0.78219834       0.00000000
Si       2.49480440       2.10480646      -1.98396323       0.00000000
Si       1.89435500      -3.44935767       0.49669732       0.00000000
Si       1.55553277      -0.95480481       3.54574063       0.00000000
Si       0.70863685       3.90934750       0.62455932       0.00000000
