10
Lattice="16.28999089631971 0.0 0.0 0.0 16.28999089631971 0.0 0.0 0.0 34.46413024517268" Properties=species:S:1:pos:R:3:initial_magmoms:R:1 pbc="T T T"
Si       2.26581194       0.68929506       0.45110125       0.00000000
Si      -0.78974313      -0.07653042       2.30392839       0.00000000
Si       0.99846297      -1.72141317      -1.48416413       0.00000000
Si      -1.75805331       1.31175225      -1.20128240       0.00000000
Si      -2.06060748      -1.63514133      -0.89786002       0.00000000
Si       2.10442691      -0.06356358      -2.87744631       0.00000000
Si      -1.44671883       2.14514865       2.56530450       0.00000000
Si       1.96716737       2.63230110       1.75126129       0.00000000
Si      -2.64193242      -1.49121918       2.19312615       0.00000000
Si       2.90625329       1.80330300      -1.56381078       0.00000000
