10
Lattice="16.28999089631971 0.0 0.0 0.0 16.28999089631971 0.0 0.0 0.0 34.46413024517268" Properties=species:S:1:pos:R:3:initial_magmoms:R:1 pbc="T T T"
Si       1.35666378      -1.35540945       1.36388425       0.00000000
Si      -1.35928647       1.36168110       1.36326390       0.00000000
Si      -1.36207206      -1.36524861      -1.36590041       0.00000000
Si       1.36992384       1.37736837      -1.36852313       0.00000000
Si      -2.71226871      -2.71208626       0.00485945       0.00000000
Si       2.71344159      -2.71102252       0.00248142       0.00000000
Si      -2.71244790       2.71749780       0.00420463       0.00000000
Si       2.71166598       2.72064177       0.00709961       0.00000000
Si      -0.00102627      -2.71211233       2.72022086       0.00000000
Si       2.71435383       0.00335574       2.72001407       0.00000000
