10
Lattice="16.28999089631971 0.0 0.0 0.0 16.28999089631971 0.0 0.0 0.0 34.46413024517268" Properties=species:S:1:pos:R:3:initial_magmoms:R:1 pbc="T T T"
Si      -0.96594813       0.72958023       1.97841450       0.00000000
Si       0.65697570      -2.22167907      -0.26137611       0.00000000
Si      -1.60697592      -0.02554272      -1.71900285       0.00000000
Si       1.48445950       1.76896368      -0.79612185       0.00000000
Si      -1.41806079       2.80448640       0.86280998       0.00000000
Si       3.41388620       0.48715245      -0.81404321       0.00000000
Si       0.83549781       0.62737677       3.46133793       0.00000000
Si       1.44671883      -2.14514865      -2.56530450       0.00000000
Si      -2.41815276       2.21364810      -1.73630385       0.00000000
Si       3.49501040      -0.88366734       1.14824207       0.00000000
