10
Lattice="16.28999089631971 0.0 0.0 0.0 16.28999089631971 0.0 0.0 0.0 34.46413024517268" Properties=species:S:1:pos:R:3:initial_magmoms:R:1 pbc="T T T"
Si      -1.31509007       1.38966732      -1.35185626       0.00000000
Si       1.42964298      -1.30412853      -1.33534794       0.00000000
Si       0.80182638       1.86686658       1.31363552       0.00000000
Si      -1.10596394      -1.65784959       1.39328217       0.00000000
Si       0.16138503       0.75285864       3.32854756       0.00000000
Si      -2.10442691       0.06356358       2.87744631       0.00000000
Si       2.70075168      -2.61601110       0.26682145       0.00000000
Si      -2.62504684       2.71218726       0.07130633       0.00000000
Si      -2.65732106       0.04678488      -2.70657305       0.00000000
Si       0.05279589      -2.66976810      -2.70312664       0.00000000
