10
Lattice="16.28999089631971 0.0 0.0 0.0 16.28999089631971 0.0 0.0 0.0 34.46413024517268" Properties=species:S:1:pos:R:3:initial_magmoms:R:1 pbc="T T T"
Si       2.14290782      -0.82960083      -0.04976623       0.00000000
Si      -1.25986860      -0.52531992      -1.89883678       0.00000000
Si      -0.92572812      -0.65536299       2.05009993       0.00000000
Si       0.13704777       2.34572742       0.03422290       0.00000000
Si       2.79322579      -0.11793960       2.07019253       0.00000000
Si      -2.47780674       1.11650031       2.22745245       0.00000000
Si      -2.11541940       2.89909872       0.59988299       0.00000000
Si       1.01488329      -0.89930574       3.47105682       0.00000000
Si       0.23364747      -0.54231039      -3.72798705       0.00000000
Si       1.02965832       3.06646218      -2.00732992       0.00000000
