10
Lattice="16.28999089631971 0.0 0.0 0.0 16.28999089631971 0.0 0.0 0.0 34.46413024517268" Properties=species:S:1:pos:R:3:initial_magmoms:R:1 pbc="T T T"
Si       1.31717682      -1.38223908      -1.29481810       0.00000000
Si       1.61099955       1.02260475       1.34568718       0.00000000
Si      -1.60298487      -1.04562252       1.34554932       0.00000000
Si      -1.40183595       1.36161594      -1.29816112       0.00000000
Si       0.44059563       1.21443579       3.37224810       0.00000000
Si       2.65699609      -0.00575037      -2.64819078       0.00000000
Si      -3.44841381       0.63666207       1.39135218       0.00000000
Si      -0.05892093       2.71241532      -2.65611754       0.00000000
Si      -0.05822046      -2.71854036      -2.65018970       0.00000000
Si      -2.77636986       2.61011412       0.13968320       0.00000000
