10
Lattice="16.28999089631971 0.0 0.0 0.0 16.28999089631971 0.0 0.0 0.0 34.46413024517268" Properties=species:S:1:pos:R:3:initial_magmoms:R:1 pbc="T T T"
Si       1.71367542      -0.75614922      -1.39938233       0.00000000
Si      -0.78509655       2.00117763      -0.94907375       0.00000000
Si      -1.37226960      -1.86417873      -0.44620734       0.00000000
Si       0.43046325       0.31296348       2.36458530       0.00000000
Si      -2.40497415       2.15340768       0.68917960       0.00000000
Si      -1.37261169      -1.58276898      -2.86300583       0.00000000
Si       2.16578808      -2.83105539      -0.28377781       0.00000000
Si      -0.01066995      -3.62664270       0.26788983       0.00000000
Si      -1.01704986       2.23309836       2.68534314       0.00000000
Si       3.28056165       0.98396487      -1.35251108       0.00000000
