10
Lattice="16.28999089631971 0.0 0.0 0.0 16.28999089631971 0.0 0.0 0.0 34.46413024517268" Properties=species:S:1:pos:R:3:initial_magmoms:R:1 pbc="T T T"
Si      -1.56688623      -1.74011409      -0.04687124       0.00000000
Si      -0.05432715       1.55616741      -1.76228982       0.00000000
Si       2.01775012      -0.65096469      -1.03151199       0.00000000
Si       0.18606438       0.83251674       2.20480950       0.00000000
Si      -1.47442419      -0.05890464      -3.03081177       0.00000000
Si       1.33563406      -2.77563681      -1.70580308       0.00000000
Si       3.53910743       0.05851368       0.56155885       0.00000000
Si       2.51612801       1.09659393       2.44916032       0.00000000
Si      -3.28056165      -0.98396487       1.35251108       0.00000000
Si      -1.10345202       2.87371890       2.13495067       0.00000000
