10
Lattice="16.28999089631971 0.0 0.0 0.0 16.28999089631971 0.0 0.0 0.0 34.46413024517268" Properties=species:S:1:pos:R:3:initial_magmoms:R:1 pbc="T T T"
Si      -2.30874912       0.29284533       0.34512399       0.00000000
Si       0.85511490       2.18141019       0.29384134       0.00000000
Si       0.49458625      -0.19474695      -2.30175715       0.00000000
Si       0.82497677      -1.41123528       1.79475505       0.00000000
Si       3.00655475      -1.79424576       0.98488200       0.00000000
Si      -0.86885973       3.60184932      -0.52616417       0.00000000
Si      -3.18987522       0.95094504      -1.79113631       0.00000000
Si      -3.22085880      -1.85285718       0.80590967       0.00000000
Si       2.79568070      -0.47105793      -2.70867537       0.00000000
Si      -0.89112816      -1.73266956      -3.43945319       0.00000000
