10
Lattice="16.28999089631971 0.0 0.0 0.0 16.28999089631971 0.0 0.0 0.0 34.46413024517268" Properties=species:S:1:pos:R:3:initial_magmoms:R:1 pbc="T T T"
Si      -1.92942670       1.28181123       0.01792136       0.00000000
Si       0.29864457      -1.94300604      -1.30016004       0.00000000
Si       1.86782769       1.23266430      -0.79243419       0.00000000
Si       0.08112420      -1.37081979       1.96228528       0.00000000
Si      -3.41388620      -0.48715245       0.81404321       0.00000000
Si       0.93908592      -0.82899810      -3.31507208       0.00000000
Si      -0.32312844       0.30338496       3.53750370       0.00000000
Si       2.89000890       1.56413322       1.40000268       0.00000000
Si      -0.63891009       0.93747321      -3.46933361       0.00000000
Si      -1.24731064       3.40648335       0.69221244       0.00000000
