10
Lattice="16.28999089631971 0.0 0.0 0.0 16.28999089631971 0.0 0.0 0.0 34.46413024517268" Properties=species:S:1:pos:R:3:initial_magmoms:R:1 pbc="T T T"
Si       0.05432715      -1.55616741       1.76228982       0.00000000
Si      -1.85176575       1.46277684      -0.01368227       0.00000000
Si       1.65517218       1.67826096      -0.30841967       0.00000000
Si      -1.42009704      -1.61507205      -1.26852195       0.00000000
Si       2.07207727      -2.20713210       0.73077783       0.00000000
Si       2.93241896      -1.36480878      -1.29712719       0.00000000
Si      -3.27042927       0.10661805      -1.25142773       0.00000000
Si      -2.68322364       1.38306987       2.16341806       0.00000000
Si      -0.24969312      -1.80690309      -3.29508287       0.00000000
Si       1.49267781       1.95664077      -2.92245649       0.00000000
