10
Lattice="16.28999089631971 0.0 0.0 0.0 16.28999089631971 0.0 0.0 0.0 34.46413024517268" Properties=species:S:1:pos:R:3:initial_magmoms:R:1 pbc="T T T"
Si      -1.63409877       0.06551838      -1.73382243       0.00000000
Si       1.72522503       1.67223270      -0.18248767       0.00000000
Si       1.28951640      -2.04120216       0.06985883       0.00000000
Si      -1.63260009       0.23459229       1.77486924       0.00000000
Si       3.51265247       0.52575975       0.96154977       0.00000000
Si      -2.70905958       2.26787004       1.05412048       0.00000000
Si       1.10345202      -2.87371890      -2.13495067       0.00000000
Si       0.62749080      -3.26161638       1.96249207       0.00000000
Si      -3.40265520       1.49146909      -1.06807846       0.00000000
Si      -2.96220618      -1.85650614      -1.73151334       0.00000000
