10
Lattice="16.28999089631971 0.0 0.0 0.0 16.28999089631971 0.0 0.0 0.0 34.46413024517268" Properties=species:S:1:pos:R:3:initial_magmoms:R:1 pbc="T T T"
Si      -2.06373123      -1.19975850       0.33481921       0.00000000
Si       0.55939860       2.00901312      -1.27162372       0.00000000
Si       0.05577696       1.10526021       2.36313780       0.00000000
Si       0.83030130      -1.75575249      -1.93247379       0.00000000
Si      -3.11051034       0.84668904      -0.15129762       0.00000000
Si      -1.69559352      -2.40728733       2.35173017       0.00000000
Si      -0.84134592      -0.66479490       3.76231821       0.00000000
Si       2.27019069       1.55325150      -2.80376195       0.00000000
Si      -2.25865737      -3.09446469      -1.02989218       0.00000000
Si       1.59689241       3.72774204      -0.04532036       0.00000000
