10
Lattice="16.28999089631971 0.0 0.0 0.0 16.28999089631971 0.0 0.0 0.0 34.46413024517268" Properties=species:S:1:pos:R:3:initial_magmoms:R:1 pbc="T T T"
Si      -2.14290782       0.82960083       0.04976623       0.00000000
Si       1.86693174       0.41243022      -1.30381324       0.00000000
Si       0.65031798       0.71166123       2.11995876       0.00000000
Si       0.35249768      -2.31409224       0.24652206       0.00000000
Si       2.35178730      -0.85312359       2.35927782       0.00000000
Si       3.42961515      -0.12057858       0.38972060       0.00000000
Si       1.87344774      -1.44194193      -2.73972756       0.00000000
Si      -1.12802453      -0.06970491       3.52082305       0.00000000
Si      -3.06863594       0.17423784       2.09986617       0.00000000
Si      -2.00586005       3.17532825       0.08398913       0.00000000
