10
Lattice="16.28999089631971 0.0 0.0 0.0 16.28999089631971 0.0 0.0 0.0 34.46413024517268" Properties=species:S:1:pos:R:3:initial_magmoms:R:1 pbc="T T T"
Si      -1.70146932       1.56478482      -0.23931905       0.00000000
Si       1.48423077       0.33806637       1.75629306       0.00000000
Si      -1.31356044      -1.92647169       0.10222067       0.00000000
Si       1.07782785       0.73254501      -1.96955722       0.00000000
Si      -1.99928962      -1.46096865      -2.11275576       0.00000000
Si       1.86730641       2.68610697      -0.99628963       0.00000000
Si      -2.35178730       0.85312359      -2.35927782       0.00000000
Si      -0.27666936       3.44693142      -0.16398042       0.00000000
Si       0.23949558      -3.68508145      -0.17301003       0.00000000
Si       2.29040658      -1.03884588      -2.78263543       0.00000000
