10
Lattice="16.28999089631971 0.0 0.0 0.0 16.28999089631971 0.0 0.0 0.0 34.46413024517268" Properties=species:S:1:pos:R:3:initial_magmoms:R:1 pbc="T T T"
Si      -1.33711578       1.36028016       1.35684667       0.00000000
Si       1.38852702      -1.38355857       1.33281138       0.00000000
Si      -1.75589910      -0.90924264      -1.35645520       0.00000000
Si       1.57169178       1.13570622      -1.51871242       0.00000000
Si      -2.62021392       2.59556715      -0.20652297       0.00000000
Si      -2.67838877      -2.66843232      -0.10871716       0.00000000
Si       2.71386513       2.67499719      -0.06828727       0.00000000
Si      -2.69227762      -0.00866628       2.71439642       0.00000000
Si       0.02065572       2.70480789       2.71898015       0.00000000
Si       0.02438613      -2.72657133       2.71742926       0.00000000
