10
Lattice="16.28999089631971 0.0 0.0 0.0 16.28999089631971 0.0 0.0 0.0 34.46413024517268" Properties=species:S:1:pos:R:3:initial_magmoms:R:1 pbc="T T T"
Si      -1.10604213       1.38779397       1.52310862       0.00000000
Si       1.33560081       1.34869797      -1.37577438       0.00000000
Si      -1.38536676      -1.36085031      -1.37060476       0.00000000
Si       1.37868786      -1.36666584       1.42540276       0.00000000
Si      -2.21465808      -0.48845565       2.48824267       0.00000000
Si      -0.63666207      -2.25492696       2.64250420       0.00000000
Si       2.68648164       2.71070487       0.00620355       0.00000000
Si       2.69364924      -2.72653875       0.00930532       0.00000000
Si       2.68781742      -0.00092853      -2.73400652       0.00000000
Si      -2.71946237       2.72109789       0.02415937       0.00000000
