10
Lattice="16.28999089631971 0.0 0.0 0.0 16.28999089631971 0.0 0.0 0.0 34.46413024517268" Properties=species:S:1:pos:R:3:initial_magmoms:R:1 pbc="T T T"
Si       2.30109445      -0.27631098      -0.40691821       0.00000000
Si      -1.38571441      -1.53792261      -1.13769604       0.00000000
Si      -0.49458625       0.19474695       2.30175715       0.00000000
Si      -0.47515228       1.94642694      -1.31508302       0.00000000
Si       1.82099557      -0.53395362      -2.68496403       0.00000000
Si      -0.49310386      -0.81718785      -3.17924886       0.00000000
Si       0.36052865       2.37615714       2.59559849       0.00000000
Si       2.69526358      -2.11944303       0.97361222       0.00000000
Si      -2.27878108       2.90885643      -0.19809993       0.00000000
Si       1.51824592       3.26041092      -0.89630914       0.00000000
