10
Lattice="16.28999089631971 0.0 0.0 0.0 16.28999089631971 0.0 0.0 0.0 34.46413024517268" Properties=species:S:1:pos:R:3:initial_magmoms:R:1 pbc="T T T"
Si      -1.35590467       1.35347094      -1.36143730       0.00000000
Si      -1.33302047      -1.35119034       1.39562573       0.00000000
Si       1.36088289      -1.35803214      -1.36185087       0.00000000
Si       1.33942896       1.37196009       1.38042704       0.00000000
Si       2.53016280      -0.14858109       2.69964576       0.00000000
Si      -2.71069577       2.71388142      -0.00334302       0.00000000
Si      -2.71310486      -0.00133578      -2.71842872       0.00000000
Si       0.00109143       2.71339060      -2.71818747       0.00000000
Si      -2.71239058      -2.71985985       0.00151642       0.00000000
Si       2.71790505       2.71485162      -0.00003446       0.00000000
