10
Lattice="16.28999089631971 0.0 0.0 0.0 16.28999089631971 0.0 0.0 0.0 34.46413024517268" Properties=species:S:1:pos:R:3:initial_magmoms:R:1 pbc="T T T"
Si      -2.17847473       0.88282026       0.11404187       0.00000000
Si      -0.90122796      -2.16024948      -0.87466565       0.00000000
Si       1.35519768      -0.78017697       1.95349692       0.00000000
Si       1.67140287       1.40911758      -1.24232920       0.00000000
Si      -0.24021234      -2.29309443       2.74631022       0.00000000
Si      -2.34096911       1.16120007      -2.49999494       0.00000000
Si      -1.76156965      -3.00257280       1.15323937       0.00000000
Si       1.02498309      -3.19924197      -1.73361565       0.00000000
Si       3.43619631      -1.25701785       0.97319865       0.00000000
Si       3.09668013      -1.99927170      -1.26424840       0.00000000
