10
Lattice="16.28999089631971 0.0 0.0 0.0 16.28999089631971 0.0 0.0 0.0 34.46413024517268" Properties=species:S:1:pos:R:3:initial_magmoms:R:1 pbc="T T T"
Si      -0.85379148      -1.41016014      -1.62632875       0.00000000
Si      -2.07801756       0.35940627       0.98777699       0.00000000
Si       0.61830324      -1.67392782       1.54278765       0.00000000
Si       0.88669728       2.21796495      -0.61370311       0.00000000
Si      -2.45158636       2.34574371      -0.15339993       0.00000000
Si       1.05746535      -2.38993848      -2.54734868       0.00000000
Si      -1.45956771       0.42391467       3.31903545       0.00000000
Si      -0.56923776       3.63659656       0.52557828       0.00000000
Si      -1.29516903      -3.17731563       1.47716791       0.00000000
Si      -2.11276413      -0.14880915      -3.20244324       0.00000000
