10
Lattice="16.28999089631971 0.0 0.0 0.0 16.28999089631971 0.0 0.0 0.0 34.35334932831803" Properties=species:S:1:pos:R:3:initial_magmoms:R:1 pbc="T T T"
Si      -2.06911622       1.08898650      -0.22759107       0.00000000
Si      -0.24904152      -2.33846208      -0.55886060       0.00000000
Si       0.56404125       0.68082426       2.25708502       0.00000000
Si       1.36254447       2.01740247      -1.14008524       0.00000000
Si      -1.19927957       2.23443414      -2.21355930       0.00000000
Si      -1.48053946       0.22595859       3.31551230       0.00000000
Si       1.80006129      -2.72125753      -1.77016037       0.00000000
Si      -3.05114048       0.14208138      -2.17140772       0.00000000
Si      -3.13799876       1.02377763       1.89469133       0.00000000
Si      -1.13620632      -3.36102448       1.52683546       0.00000000
