10
Lattice="16.28999089631971 0.0 0.0 0.0 16.28999089631971 0.0 0.0 0.0 34.35334932831803" Properties=species:S:1:pos:R:3:initial_magmoms:R:1 pbc="T T T"
Si       1.83875004       1.42030392      -0.17296921       0.00000000
Si       0.77659317      -1.80048061      -1.28557176       0.00000000
Si      -0.18440280      -0.43006807       2.32984545       0.00000000
Si      -2.23174140       0.28323912      -0.77899698       0.00000000
Si      -1.34457660       1.30580151      -2.86469305       0.00000000
Si       1.08851409      -3.25255492       0.44501354       0.00000000
Si      -0.53418168      -2.71588087       2.08830692       0.00000000
Si       1.11402423       3.19109208       1.26001285       0.00000000
Si       3.50565687       0.06530661       0.92644164       0.00000000
Si      -3.19208919       1.57224075       1.00201905       0.00000000
