10
Lattice="16.28999089631971 0.0 0.0 0.0 16.28999089631971 0.0 0.0 0.0 34.35334932831803" Properties=species:S:1:pos:R:3:initial_magmoms:R:1 pbc="T T T"
Si       2.16349119       0.47213307      -0.76848485       0.00000000
Si      -1.36943514       1.65698622      -0.97113537       0.00000000
Si       0.28220796       0.35274366       2.32503598       0.00000000
Si      -1.23574311      -2.00194326      -0.50489146       0.00000000
Si       1.62970047       1.18646586      -2.91883396       0.00000000
Si      -2.69762400      -1.90407294       1.50993361       0.00000000
Si      -2.22529545      -1.33333650      -2.60872610       0.00000000
Si      -1.25887491      -1.11039156       3.44426873       0.00000000
Si      -3.24079776       0.65461365      -1.96288277       0.00000000
Si      -0.46266858       2.30322681      -3.06971395       0.00000000
