10
Lattice="16.28999089631971 0.0 0.0 0.0 16.28999089631971 0.0 0.0 0.0 34.35334932831803" Properties=species:S:1:pos:R:3:initial_magmoms:R:1 pbc="T T T"
Si       0.47667798       1.74698847      -1.46348785       0.00000000
Si       1.12653495      -0.05186736       2.14244615       0.00000000
Si       0.61056549      -2.18787732      -0.84395920       0.00000000
Si      -2.53286694       0.53737452       0.47490097       0.00000000
Si      -1.42081380       0.92207916      -2.66613058       0.00000000
Si      -0.63060219      -0.91427625       3.40285716       0.00000000
Si      -1.92277386      -2.29736241       2.05563687       0.00000000
Si      -0.93051738      -3.65101254       0.27527354       0.00000000
Si      -3.42606393       0.01725111      -1.69540744       0.00000000
Si       3.06123309      -2.29563567      -0.16657948       0.00000000
