10
Lattice="16.28999089631971 0.0 0.0 0.0 16.28999089631971 0.0 0.0 0.0 34.35334932831803" Properties=species:S:1:pos:R:3:initial_magmoms:R:1 pbc="T T T"
Si       1.35391077      -1.35931905       1.35919103       0.00000000
Si      -1.35870003       1.35909099       1.35850396       0.00000000
Si       1.35829278       1.34946360      -1.37272625       0.00000000
Si      -1.36805049      -1.35234693      -1.36691366       0.00000000
Si      -0.22128336       2.46482361      -2.74528074       0.00000000
Si       0.12500946      -2.59533909      -2.73679202       0.00000000
Si       2.71228500       2.71669959      -0.00140849       0.00000000
Si       2.71352304       0.00052128       2.71652697       0.00000000
Si       2.71428867      -2.71699281      -0.00054965       0.00000000
Si      -0.00172674       2.71549413       2.71659568       0.00000000
