10
Lattice="16.28999089631971 0.0 0.0 0.0 16.28999089631971 0.0 0.0 0.0 34.35334932831803" Properties=species:S:1:pos:R:3:initial_magmoms:R:1 pbc="T T T"
Si      -1.54772919      -0.68510853      -1.81543811       0.00000000
Si      -0.19595241       0.32926977       2.47526326       0.00000000
Si       1.80656100      -1.77236829      -0.17825963       0.00000000
Si       0.96870114       2.01671829      -1.72818056       0.00000000
Si      -2.83910591      -2.14839036      -0.49516945       0.00000000
Si      -0.34029810      -2.07902754      -3.28531569       0.00000000
Si       0.87423543      -3.38387283      -1.73855527       0.00000000
Si       2.06720100       0.93131559       3.20609682       0.00000000
Si      -1.47764961       2.32375221       2.93886197       0.00000000
Si       3.55626990      -0.83812050      -1.72982952       0.00000000
