10
Lattice="16.28999089631971 0.0 0.0 0.0 16.28999089631971 0.0 0.0 0.0 34.35334932831803" Properties=species:S:1:pos:R:3:initial_magmoms:R:1 pbc="T T T"
Si       1.60068798      -1.43281953       0.98552944       0.00000000
Si      -2.31897924      -0.38042037       0.31958939       0.00000000
Si       0.60056343       2.15392896       0.86525829       0.00000000
Si       0.41845752      -0.52377237      -2.35921758       0.00000000
Si       3.02674716       1.25687124      -0.19749752       0.00000000
Si      -3.05062830       1.91454741       0.41825226       0.00000000
Si       2.78720271      -0.66775968      -2.29404924       0.00000000
Si      -1.55484792       2.62845666       2.04210164       0.00000000
Si      -2.77065207      -2.51700048      -1.29512199       0.00000000
Si       3.38797791      -2.00849184      -0.46675922       0.00000000
