10
Lattice="16.28999089631971 0.0 0.0 0.0 16.28999089631971 0.0 0.0 0.0 34.35334932831803" Properties=species:S:1:pos:R:3:initial_magmoms:R:1 pbc="T T T"
Si       2.12162589       0.69468705       0.76157983       0.00000000
Si      -0.79700454       1.07758350      -1.94732069       0.00000000
Si      -1.70256564       0.27214074       1.62233783       0.00000000
Si       0.06703335      -2.37350187      -0.23054546       0.00000000
Si       3.37986549      -0.14838561      -1.17862972       0.00000000
Si      -0.83973321      -3.01974246       1.86803312       0.00000000
Si      -1.21946940      -1.21402854       3.34203310       0.00000000
Si      -3.72166227      -0.60072633       0.74897214       0.00000000
Si      -1.12822911       3.38866209      -1.46177018       0.00000000
Si      -0.85051719      -2.93167872      -2.37690957       0.00000000
