10
Lattice="16.28999089631971 0.0 0.0 0.0 16.28999089631971 0.0 0.0 0.0 34.35334932831803" Properties=species:S:1:pos:R:3:initial_magmoms:R:1 pbc="T T T"
Si       0.00765630      -0.44072106       2.29078567       0.00000000
Si      -1.00530477       2.05091100      -0.52471335       0.00000000
Si      -1.87501810      -1.36916540      -0.38726552       0.00000000
Si       1.86847929      -1.19287502      -0.85306285       0.00000000
Si      -0.90440451      -3.40616474       0.24806567       0.00000000
Si       1.84002066      -0.31877901      -3.07885195       0.00000000
Si      -0.07807797      -2.76471341       2.35993900       0.00000000
Si      -1.19684259       2.09953665      -2.84480245       0.00000000
Si      -3.36664520      -0.87252400       1.41790093       0.00000000
Si       1.15453746      -3.48135938      -0.81829724       0.00000000
