10
Lattice="16.28999089631971 0.0 0.0 0.0 16.28999089631971 0.0 0.0 0.0 34.35334932831803" Properties=species:S:1:pos:R:3:initial_magmoms:R:1 pbc="T T T"
Si      -2.07418941      -0.92949111      -0.60001593       0.00000000
Si       2.04375969      -1.07976636      -0.57940391       0.00000000
Si      -0.16731459      -0.99650817       2.15969322       0.00000000
Si       0.34295337       2.38837042      -0.11858783       0.00000000
Si      -2.38611033       0.52258320      -2.33060123       0.00000000
Si       3.26852334      -0.04214223       1.12136266       0.00000000
Si       1.87506045      -0.04740390       3.03240619       0.00000000
Si      -0.31425039       0.48731535      -3.53111404       0.00000000
Si       1.56629979      -3.35065752      -0.21024262       0.00000000
Si       0.16390998      -3.30758676       1.67414271       0.00000000
