10
Lattice="16.28999089631971 0.0 0.0 0.0 16.28999089631971 0.0 0.0 0.0 34.35334932831803" Properties=species:S:1:pos:R:3:initial_magmoms:R:1 pbc="T T T"
Si       1.39836618       1.77599674      -0.67439098       0.00000000
Si      -1.98632115       0.23144832      -1.37252013       0.00000000
Si       0.88132158      -2.25665370      -0.28578567       0.00000000
Si      -1.53938871      -0.93506229       1.76741210       0.00000000
Si       1.79646120       1.05397670       2.54493189       0.00000000
Si      -0.62102367       0.69298379       3.21952899       0.00000000
Si       1.68358779       0.72339722      -2.81364394       0.00000000
Si      -2.70026298      -2.05703604      -1.33775452       0.00000000
Si      -1.15665516      -3.49312986      -0.18945883       0.00000000
Si      -0.05750370       3.66957404      -0.45160938       0.00000000
