10
Lattice="16.28999089631971 0.0 0.0 0.0 16.28999089631971 0.0 0.0 0.0 34.35334932831803" Properties=species:S:1:pos:R:3:initial_magmoms:R:1 pbc="T T T"
Si      -0.34080309       2.34229023      -0.47091598       0.00000000
Si       0.04193046      -0.21577734      -2.42778691       0.00000000
Si       2.24661906      -0.27777708       0.91022685       0.00000000
Si      -1.81457568      -0.75696372       1.54913080       0.00000000
Si      -2.73429279       1.93696245      -0.39784636       0.00000000
Si       2.07990720       1.02069882      -2.52411375       0.00000000
Si      -0.51147342      -2.28327156       2.80440289       0.00000000
Si       3.67411176       0.51668622      -0.83451203       0.00000000
Si       2.52514548      -3.05351163      -0.47953867       0.00000000
Si       2.20894029       1.16380647       3.16912096       0.00000000
