10
Lattice="16.28999089631971 0.0 0.0 0.0 16.28999089631971 0.0 0.0 0.0 34.35334932831803" Properties=species:S:1:pos:R:3:initial_magmoms:R:1 pbc="T T T"
Si       1.42749270       0.79446330      -1.74473888       0.00000000
Si      -2.24661906       0.27777708      -0.91022685       0.00000000
Si      -0.03767877       1.44158355       2.25889411       0.00000000
Si       0.27852642      -2.77573455      -1.38976552       0.00000000
Si      -0.16671186       1.29847590      -3.43434060       0.00000000
Si      -1.17504657      -0.37683657       3.46809077       0.00000000
Si      -2.75809248      -2.00549448       1.89417603       0.00000000
Si      -2.58742215       2.62006731      -1.38114283       0.00000000
Si       3.27707559      -0.79498458      -2.06285107       0.00000000
Si      -2.20468860       0.06199974      -3.33801376       0.00000000
