10
Lattice="16.28999089631971 0.0 0.0 0.0 16.28999089631971 0.0 0.0 0.0 34.35334932831803" Properties=species:S:1:pos:R:3:initial_magmoms:R:1 pbc="T T T"
Si       1.34128602       1.35446838       1.36871378       0.00000000
Si      -1.37249766      -1.35957498       1.36520974       0.00000000
Si      -1.31836599       1.37731673      -1.41104056       0.00000000
Si       1.33726239      -1.45307958      -1.40444472       0.00000000
Si      -1.98376362      -0.57416892      -2.58394530       0.00000000
Si      -0.45655983      -2.50609776      -2.58710340       0.00000000
Si      -2.71909422       2.69212987       0.01442154       0.00000000
Si       2.69843850       2.71469152      -0.02512262       0.00000000
Si       2.69835705      -0.00019766       2.72735515       0.00000000
Si       2.70868491      -2.72234751       0.00945748       0.00000000
