10
Lattice="16.28999089631971 0.0 0.0 0.0 16.28999089631971 0.0 0.0 0.0 34.35334932831803" Properties=species:S:1:pos:R:3:initial_magmoms:R:1 pbc="T T T"
Si       1.35716877       1.35729909       1.39071024       0.00000000
Si      -1.35715248      -1.36022314       1.39383640       0.00000000
Si      -1.47302325       1.36772469      -1.42188936       0.00000000
Si       1.39962051      -1.41556028      -1.45108285       0.00000000
Si      -2.69843850      -2.71469152       0.02512262       0.00000000
Si       2.71324611       2.70488934       0.01597432       0.00000000
Si       2.71282257      -2.72402099       0.02018947       0.00000000
Si      -2.72474685       2.71410948       0.03726997       0.00000000
Si       2.71479366      -0.00008145       2.75127540       0.00000000
Si       0.00014661       2.71466334       2.75158458       0.00000000
