10
Lattice="16.28999089631971 0.0 0.0 0.0 16.28999089631971 0.0 0.0 0.0 34.35334932831803" Properties=species:S:1:pos:R:3:initial_magmoms:R:1 pbc="T T T"
Si       1.35363384       1.34364807      -1.37561194       0.00000000
Si      -1.36355445      -1.36656518      -1.37554323       0.00000000
Si       1.23373944      -1.51285949       1.37688301       0.00000000
Si      -1.33991766       1.42376229       1.44936862       0.00000000
Si      -2.26893636      -0.57128541       2.37735616       0.00000000
Si      -0.72874944      -2.36792159       2.73325706       0.00000000
Si       2.69697240       2.69501760       0.01051213       0.00000000
Si      -2.72987820       2.70479160       0.00374452       0.00000000
Si      -0.00532683       2.70163134      -2.73459684       0.00000000
Si       2.70699075      -0.01158219      -2.73514650       0.00000000
