10
Lattice="16.28999089631971 0.0 0.0 0.0 16.28999089631971 0.0 0.0 0.0 34.35334932831803" Properties=species:S:1:pos:R:3:initial_magmoms:R:1 pbc="T T T"
Si      -1.35632169      -1.35586754      -1.35678629       0.00000000
Si       1.35966114      -1.35273009       1.35932844       0.00000000
Si      -1.35540945       1.35979635       1.35709547       0.00000000
Si       1.35904212       1.35898185      -1.35661452       0.00000000
Si      -2.71295289       0.00122338      -2.71470624       0.00000000
Si       0.00231318      -2.71370453      -2.71412223       0.00000000
Si      -2.71316466      -2.71520321       0.00068707       0.00000000
Si      -2.71339272       2.71556418      -0.00034353       0.00000000
Si       0.00143352       2.71647642      -2.71456883       0.00000000
Si       2.71687878       0.00079821      -2.71439706       0.00000000
