10
Lattice="16.28999089631971 0.0 0.0 0.0 16.28999089631971 0.0 0.0 0.0 34.35334932831803" Properties=species:S:1:pos:R:3:initial_magmoms:R:1 pbc="T T T"
Si      -1.25172360       1.34638479       1.45915933       0.00000000
Si      -1.35524655      -1.19816208      -1.52755143       0.00000000
Si       0.90539820       1.87113456      -1.14417810       0.00000000
Si       1.47302325      -1.36772469       1.42188936       0.00000000
Si       0.52694892      -2.18825199      -2.64262742       0.00000000
Si      -2.54378124      -2.70509948       0.03597141       0.00000000
Si      -2.47305006       2.82289410       0.07759395       0.00000000
Si      -2.59838532      -0.00982287       2.81655024       0.00000000
Si       2.79731880       2.70695817       0.06895408       0.00000000
Si       0.11622915       2.70124038       2.81383632       0.00000000
