10
Lattice="16.28999089631971 0.0 0.0 0.0 16.28999089631971 0.0 0.0 0.0 34.35334932831803" Properties=species:S:1:pos:R:3:initial_magmoms:R:1 pbc="T T T"
Si       1.00444140       1.68632451      -1.43779153       0.00000000
Si      -1.69648947      -1.11596274      -1.44363161       0.00000000
Si      -0.86936472       1.31375592       1.96559669       0.00000000
Si       1.84933854      -1.82553885       0.06856932       0.00000000
Si      -0.99639414      -2.07826191       2.82649210       0.00000000
Si       2.30879799       0.23356602      -2.95267202       0.00000000
Si      -0.26858952      -0.02697624       3.79288671       0.00000000
Si      -0.41989104      -2.49769683      -2.95892434       0.00000000
Si       1.89402201       3.45685203       0.16987741       0.00000000
Si      -3.23810991       1.45774323       1.90042835       0.00000000
