10
Lattice="16.28999089631971 0.0 0.0 0.0 16.28999089631971 0.0 0.0 0.0 34.35334932831803" Properties=species:S:1:pos:R:3:initial_magmoms:R:1 pbc="T T T"
Si       1.21169907      -1.38989538       1.42071791       0.00000000
Si       0.72780462       2.05128567       0.96639461       0.00000000
Si      -2.30467662      -0.30462300       0.74337254       0.00000000
Si      -1.83039327       0.44823564       2.89736310       0.00000000
Si       0.12702942       3.39201783      -0.86089542       0.00000000
Si       0.06455727      -0.85426389       3.42801959       0.00000000
Si      -3.28719168       0.88218495      -1.07330229       0.00000000
Si       0.99639414       2.07826191      -2.82649210       0.00000000
Si      -2.23554186      -0.34889922      -2.93154470       0.00000000
Si      -1.05948531       2.62695798       2.41868326       0.00000000
