10
Lattice="16.28999089631971 0.0 0.0 0.0 16.28999089631971 0.0 0.0 0.0 34.35334932831803" Properties=species:S:1:pos:R:3:initial_magmoms:R:1 pbc="T T T"
Si      -0.60077520       1.34073216      -1.82729003       0.00000000
Si      -1.78728993       0.57567231       1.45228865       0.00000000
Si      -0.72780462      -2.05128567      -0.96639461       0.00000000
Si       1.74281823       0.55486998       1.56084530       0.00000000
Si      -0.36123075       3.26536308       0.26926170       0.00000000
Si       0.48389445      -3.44118105       0.45432330       0.00000000
Si      -2.55819789      -1.60305003       1.93096849       0.00000000
Si       1.18990305       2.80069083       2.04618969       0.00000000
Si       0.26858952       0.02697624      -3.79288671       0.00000000
Si      -2.96952039       1.48471947      -1.89245837       0.00000000
