10
Lattice="16.28999089631971 0.0 0.0 0.0 16.28999089631971 0.0 0.0 0.0 34.35334932831803" Properties=species:S:1:pos:R:3:initial_magmoms:R:1 pbc="T T T"
Si       0.33150150      -1.65099150       1.65535142       0.00000000
Si      -1.68353892       1.64054961       0.39530421       0.00000000
Si      -0.49969575      -1.02224637      -2.10301016       0.00000000
Si       1.89504828       1.42856784      -0.47455743       0.00000000
Si       1.74509883      -1.27353591      -2.84789425       0.00000000
Si       2.59313994      -2.33551359       1.00823701       0.00000000
Si      -2.21732964       2.35488240      -1.75504489       0.00000000
Si      -2.25973251       0.32148315      -2.90502390       0.00000000
Si       0.98450244       3.57754464      -0.40980133       0.00000000
Si      -0.58657032       3.51925902       1.33363212       0.00000000
