10
Lattice="16.28999089631971 0.0 0.0 0.0 16.28999089631971 0.0 0.0 0.0 34.35334932831803" Properties=species:S:1:pos:R:3:initial_magmoms:R:1 pbc="T T T"
Si      -1.82778687      -0.94653045      -1.20673078       0.00000000
Si       0.97704162       1.76511924      -1.40175485       0.00000000
Si      -1.19469231       0.93076173       1.94426325       0.00000000
Si       2.01315078      -1.65366306       0.38221558       0.00000000
Si       2.46040902       0.22573053       2.45681550       0.00000000
Si      -0.31211640      -2.18574333      -2.73614274       0.00000000
Si      -0.20352726       3.03761259       1.83673720       0.00000000
Si       0.30079485       0.18821466       3.55186348       0.00000000
Si       2.44141488       0.52233885      -2.75675476       0.00000000
Si       1.12357017      -3.42419058      -1.22545336       0.00000000
