10
Lattice="16.28999089631971 0.0 0.0 0.0 16.28999089631971 0.0 0.0 0.0 34.35334932831803" Properties=species:S:1:pos:R:3:initial_magmoms:R:1 pbc="T T T"
Si      -1.35658233      -1.35900954       1.35647711       0.00000000
Si      -1.35736262       1.35689184      -1.35795430       0.00000000
Si       1.35785295      -1.35755973      -1.35750771       0.00000000
Si       1.35837423       1.35887922       1.35637405       0.00000000
Si      -0.00081450       2.71135647       2.71367564       0.00000000
Si      -2.71274831      -0.00019548      -2.71573684       0.00000000
Si       0.00073305      -2.71370223      -2.71487801       0.00000000
Si       2.71467963      -0.00146610      -2.71412223       0.00000000
Si      -2.71466391       2.71422351      -0.00058401       0.00000000
Si       2.71516833       2.71458189      -0.00051530       0.00000000
