10
Lattice="16.28999089631971 0.0 0.0 0.0 16.28999089631971 0.0 0.0 0.0 34.35334932831803" Properties=species:S:1:pos:R:3:initial_magmoms:R:1 pbc="T T T"
Si      -1.54018692       1.79663617      -0.35590090       0.00000000
Si      -0.72332487      -1.84394655      -1.38468123       0.00000000
Si       1.96248888       0.85506210      -1.35637405       0.00000000
Si      -1.90389375      -0.57145320       1.85381083       0.00000000
Si      -1.99695852      -0.38403675      -2.75483098       0.00000000
Si       0.72874944       2.36792159      -2.73325706       0.00000000
Si      -3.46423140       1.06076540       1.21916670       0.00000000
Si      -3.45367548       0.89448390      -1.42700458       0.00000000
Si       1.95745527      -1.43627301       3.02168794       0.00000000
Si      -1.70036649      -3.60906579       0.01707362       0.00000000
