10
Lattice="16.28999089631971 0.0 0.0 0.0 16.28999089631971 0.0 0.0 0.0 34.35334932831803" Properties=species:S:1:pos:R:3:initial_magmoms:R:1 pbc="T T T"
Si       1.46437326      -1.24278039      -1.35499991       0.00000000
Si      -1.27363365       1.45990980      -1.37014975       0.00000000
Si       0.72332487       1.84394655       1.38468123       0.00000000
Si      -0.97704162      -1.76511924       1.40175485       0.00000000
Si      -1.18056888       1.27249335       3.23849205       0.00000000
Si       0.08578314      -2.58561396      -2.72143950       0.00000000
Si      -2.62516608       0.12572622      -2.72837888       0.00000000
Si       2.68581375       2.69900865       0.02830718       0.00000000
Si       2.72789082      -2.68825725       0.15919351       0.00000000
Si      -2.73035061       2.73843045      -0.04232335       0.00000000
