10
Lattice="16.28999089631971 0.0 0.0 0.0 16.28999089631971 0.0 0.0 0.0 34.35334932831803" Properties=species:S:1:pos:R:3:initial_magmoms:R:1 pbc="T T T"
Si       1.31320206      -1.30846071       1.47127233       0.00000000
Si       1.80745695       1.06930003      -1.12739648       0.00000000
Si      -1.45901385      -1.32768291      -1.37310555       0.00000000
Si      -1.39962051       1.41556028       1.45108285       0.00000000
Si      -2.34569484       0.59503297      -2.61343392       0.00000000
Si       2.78648595      -2.52235893       0.02394773       0.00000000
Si      -0.04031775      -2.65613241       2.84467878       0.00000000
Si      -2.76079662      -2.75221083       0.07176075       0.00000000
Si       2.67292836       0.05509604       2.84196486       0.00000000
Si       2.78150121       2.76484468       0.13742034       0.00000000
