10
Lattice="16.28999089631971 0.0 0.0 0.0 16.28999089631971 0.0 0.0 0.0 34.35334932831803" Properties=species:S:1:pos:R:3:initial_magmoms:R:1 pbc="T T T"
Si       1.04714973       1.80602832      -1.13239009       0.00000000
Si      -0.46434645       0.87261132       2.16439963       0.00000000
Si      -1.81573227      -1.06430945      -1.21020047       0.00000000
Si       1.67600058      -1.83948539       0.19880294       0.00000000
Si      -0.34979517      -2.30153495      -2.59467557       0.00000000
Si       2.38896664       0.43766506      -2.57876996       0.00000000
Si       1.04476617      -0.52022441       3.41644250       0.00000000
Si       0.95812893      -3.68388806      -1.12359562       0.00000000
Si       3.68407214      -1.01397335      -1.09363949       0.00000000
Si       0.08962758       3.24023250       2.30878684       0.00000000
