10
Lattice="16.28999089631971 0.0 0.0 0.0 16.28999089631971 0.0 0.0 0.0 34.35334932831803" Properties=species:S:1:pos:R:3:initial_magmoms:R:1 pbc="T T T"
Si      -0.32922090       1.97390002       1.22291121       0.00000000
Si       2.04338502       0.36974227      -1.09357078       0.00000000
Si      -0.22864644      -2.09117892       1.07388630       0.00000000
Si      -2.63642247       1.68001213       1.36482498       0.00000000
Si      -2.49670314      -2.45877906       0.95196620       0.00000000
Si       0.31859982       3.58011031      -0.52059095       0.00000000
Si       3.55249764      -1.02309345       0.15847209       0.00000000
Si      -3.48263910      -0.50077741       1.61749400       0.00000000
Si       2.59735905       2.73736345      -0.94918357       0.00000000
Si       0.68696559      -3.85851360      -0.09010889       0.00000000
