10
Lattice="16.28999089631971 0.0 0.0 0.0 16.28999089631971 0.0 0.0 0.0 34.35334932831803" Properties=species:S:1:pos:R:3:initial_magmoms:R:1 pbc="T T T"
Si       0.82007118       2.16743337      -0.41732472       0.00000000
Si      -2.14615863       0.54309231       0.82221352       0.00000000
Si      -0.07363080      -1.50174252      -1.96927250       0.00000000
Si       1.76607776      -1.83883149       0.12394695       0.00000000
Si       2.41282986       1.33333650      -1.95151181       0.00000000
Si      -2.01135888      -0.96218514       2.56976938       0.00000000
Si       0.96240328       0.11329695      -3.37260760       0.00000000
Si       3.36016178      -0.67326570      -1.13558495       0.00000000
Si       0.42212277       3.19010328       1.84415753       0.00000000
Si      -1.84754664       2.59884144       1.94598091       0.00000000
