10
Lattice="16.28999089631971 0.0 0.0 0.0 16.28999089631971 0.0 0.0 0.0 34.35334932831803" Properties=species:S:1:pos:R:3:initial_magmoms:R:1 pbc="T T T"
Si       0.20357124       1.67325993       1.84065349       0.00000000
Si      -0.69076751      -1.85329701      -1.55837186       0.00000000
Si      -1.64828966      -0.41909283       1.88280507       0.00000000
Si       1.93849860       0.92787840      -1.40532760       0.00000000
Si      -1.63613732       2.01034890      -0.25256597       0.00000000
Si       1.79765526       2.83882572       0.58112158       0.00000000
Si      -2.09041655      -0.51575769      -3.00255312       0.00000000
Si       0.65205286       2.20597551      -3.02124135       0.00000000
Si      -3.46612334       0.88443297      -1.52470556       0.00000000
Si      -0.66626540       0.52781229       3.82662172       0.00000000
