10
Lattice="16.28999089631971 0.0 0.0 0.0 16.28999089631971 0.0 0.0 0.0 34.35334932831803" Properties=species:S:1:pos:R:3:initial_magmoms:R:1 pbc="T T T"
Si       0.76333311      -1.34812782      -1.78610034       0.00000000
Si      -0.02596626      -0.74292174       2.28003307       0.00000000
Si       0.50068944       2.19284577      -0.84481804       0.00000000
Si      -2.50427799       0.10026495       0.56545645       0.00000000
Si       2.26805900      -1.59868431       1.43174534       0.00000000
Si      -1.05652053      -1.46308635      -3.22904487       0.00000000
Si      -0.82547946      -3.16148175       1.89386685       0.00000000
Si       2.79706372      -0.31469022      -2.52047230       0.00000000
Si      -1.96706637       0.68589045      -3.16428877       0.00000000
Si      -2.46449781       2.09886876       2.05604911       0.00000000
