10
Lattice="16.28999089631971 0.0 0.0 0.0 16.28999089631971 0.0 0.0 0.0 34.35334932831803" Properties=species:S:1:pos:R:3:initial_magmoms:R:1 pbc="T T T"
Si      -1.39852908       1.04793570      -1.55424945       0.00000000
Si      -1.42122105      -1.26376191       1.36221554       0.00000000
Si       1.35075051       1.49454234       1.32283970       0.00000000
Si       1.04000247      -1.79385480      -1.33026549       0.00000000
Si      -1.43830926      -0.95066811      -3.04484211       0.00000000
Si      -2.46293397       2.81437443      -0.16218225       0.00000000
Si       2.80279161      -2.50308882       0.10175918       0.00000000
Si      -0.03227049      -2.63355543       2.73112513       0.00000000
Si       2.69815212       0.10262700       2.73349895       0.00000000
Si      -2.74136265       0.10564065       2.74624061       0.00000000
