10
Lattice="16.28999089631971 0.0 0.0 0.0 16.28999089631971 0.0 0.0 0.0 34.35334932831803" Properties=species:S:1:pos:R:3:initial_magmoms:R:1 pbc="T T T"
Si       1.34604270      -1.21702590       1.46860650       0.00000000
Si       1.19741274       1.94706225       0.54779881       0.00000000
Si      -2.15961417      -0.03751587       1.09504798       0.00000000
Si      -0.44725824      -1.87939359      -2.07459993       0.00000000
Si       1.04743071      -3.27277503       0.34483911       0.00000000
Si      -2.46040902      -0.22573053      -2.45681550       0.00000000
Si       2.72541474       0.05354523      -2.28247216       0.00000000
Si      -3.65510133       0.70503120      -0.51255226       0.00000000
Si       0.44020467      -1.10631906       3.62843714       0.00000000
Si       3.61571211      -0.62576406       1.36678312       0.00000000
