10
Lattice="16.28999089631971 0.0 0.0 0.0 16.28999089631971 0.0 0.0 0.0 34.35334932831803" Properties=species:S:1:pos:R:3:initial_magmoms:R:1 pbc="T T T"
Si      -1.55211120      -1.64779866       0.55738340       0.00000000
Si      -0.48752712       2.21886090      -0.59730202       0.00000000
Si       0.52318593      -0.93216267      -2.13286324       0.00000000
Si       1.42904025       0.41186007       1.92715527       0.00000000
Si       1.74635316       3.13017237      -0.86515523       0.00000000
Si      -0.18484263      -3.26252862       1.73233731       0.00000000
Si       2.65343153      -0.09229914      -2.58598417       0.00000000
Si      -1.96832070       2.92669398       1.14702462       0.00000000
Si       2.45586478       2.47759497       1.31336363       0.00000000
Si      -3.08534229      -0.62607357       2.01801993       0.00000000
