10
Lattice="16.28999089631971 0.0 0.0 0.0 16.28999089631971 0.0 0.0 0.0 34.35334932831803" Properties=species:S:1:pos:R:3:initial_magmoms:R:1 pbc="T T T"
Si       1.34537481       1.33490034       1.37073376       0.00000000
Si       1.35247725      -1.35656604      -1.35682064       0.00000000
Si      -1.36112724       1.35555606      -1.35620228       0.00000000
Si      -1.34200278      -1.36966320       1.37190177       0.00000000
Si      -0.12056229       2.57212584       2.75520886       0.00000000
Si       2.71006956      -2.71412577       0.00841658       0.00000000
Si       2.71120072      -0.00001629      -2.71367564       0.00000000
Si      -0.00296478       2.71492574      -2.71374435       0.00000000
Si      -0.00325800      -2.71500543      -2.71367564       0.00000000
Si       2.71164659       2.71743264       0.00690503       0.00000000
