10
Lattice="16.28999089631971 0.0 0.0 0.0 16.28999089631971 0.0 0.0 0.0 34.35334932831803" Properties=species:S:1:pos:R:3:initial_magmoms:R:1 pbc="T T T"
Si       1.46593710      -1.23722550      -1.38447510       0.00000000
Si      -1.23373944       1.51285949      -1.37688301       0.00000000
Si       1.81573227       1.06430945       1.21020047       0.00000000
Si      -1.96248888      -0.85506210       1.35637405       0.00000000
Si      -3.50267580       0.94157407       1.00047315       0.00000000
Si       0.12056229      -2.57212584      -2.75520886       0.00000000
Si      -2.59729389       0.14629430      -2.75242624       0.00000000
Si      -2.68581375      -2.69900865      -0.02830718       0.00000000
Si       2.77386120      -2.61957861       0.08660484       0.00000000
Si       3.49173285      -0.77517594       1.40900341       0.00000000
