10
Lattice="16.28999089631971 0.0 0.0 0.0 16.28999089631971 0.0 0.0 0.0 34.35334932831803" Properties=species:S:1:pos:R:3:initial_magmoms:R:1 pbc="T T T"
Si      -0.91561203       1.76733468       1.16399519       0.00000000
Si      -1.19741274      -1.94706225      -0.54779881       0.00000000
Si       2.19929661      -0.23351715       0.96776874       0.00000000
Si       0.14862996      -3.16408815       0.92080769       0.00000000
Si       0.06895557       1.12739832       3.17820189       0.00000000
Si       2.41829937      -2.57282631       0.81898431       0.00000000
Si      -3.18366873       1.39973454       1.04207508       0.00000000
Si       1.52800200      -1.89351702      -2.83027097       0.00000000
Si       3.68500230       0.77388903      -0.59695848       0.00000000
Si      -1.35203742      -0.80164719       3.52396854       0.00000000
