10
Lattice="16.28999089631971 0.0 0.0 0.0 16.28999089631971 0.0 0.0 0.0 34.35334932831803" Properties=species:S:1:pos:R:3:initial_magmoms:R:1 pbc="T T T"
Si      -0.73788813       1.36539556       1.71636300       0.00000000
Si      -0.98456760       0.63993636      -2.01420670       0.00000000
Si      -1.42099299      -1.92904551       0.34576665       0.00000000
Si       2.42360991      -0.10746513      -0.15888433       0.00000000
Si       2.13034104      -1.36091547      -2.21043314       0.00000000
Si      -0.06895557      -1.12739832      -3.17820189       0.00000000
Si      -0.31472280      -0.15887637       3.48257273       0.00000000
Si      -1.78232148      -1.77561000       2.68461269       0.00000000
Si       0.41282118       3.38884847       1.75081943       0.00000000
Si       3.13235590      -1.26778554       1.84481024       0.00000000
