10
Lattice="16.28999089631971 0.0 0.0 0.0 16.28999089631971 0.0 0.0 0.0 34.35334932831803" Properties=species:S:1:pos:R:3:initial_magmoms:R:1 pbc="T T T"
Si       0.70874599      -1.16032041       2.00369457       0.00000000
Si      -0.29326887      -1.25345034      -2.05154882       0.00000000
Si      -2.42360991       0.10746513       0.15888433       0.00000000
Si       1.33276213       2.07283801      -0.18014906       0.00000000
Si       0.37296657       1.81548696      -2.77073659       0.00000000
Si       0.37241434       3.36183965       1.60086697       0.00000000
Si       1.19243682      -0.24604416      -3.61627604       0.00000000
Si       0.31698711      -3.47542263       1.70086963       0.00000000
Si      -3.40817751       0.74740149      -1.85532237       0.00000000
Si      -3.16149804       1.47286069       1.87524733       0.00000000
