10
Lattice="16.28999089631971 0.0 0.0 0.0 16.28999089631971 0.0 0.0 0.0 34.35334932831803" Properties=species:S:1:pos:R:3:initial_magmoms:R:1 pbc="T T T"
Si      -2.26805670      -0.36760014      -0.12192010       0.00000000
Si       0.91561203      -1.76733468      -1.16399519       0.00000000
Si       0.98456760      -0.63993636       2.01420670       0.00000000
Si       0.22864644       2.09117892      -1.07388630       0.00000000
Si      -0.43642539      -2.56898187       2.35997336       0.00000000
Si      -2.50093854      -2.25764739       1.20418863       0.00000000
Si      -3.25399266       1.59040152       0.54360770       0.00000000
Si       3.11490864      -2.00085183      -0.19622644       0.00000000
Si       0.24667947       0.72545920       3.73056970       0.00000000
Si      -2.94573699      -0.90251487      -2.33187230       0.00000000
