10
Lattice="16.28999089631971 0.0 0.0 0.0 16.28999089631971 0.0 0.0 0.0 34.35334932831803" Properties=species:S:1:pos:R:3:initial_magmoms:R:1 pbc="T T T"
Si       0.21900276      -2.33930916      -0.14878444       0.00000000
Si       1.48570569       1.00740618      -1.56472723       0.00000000
Si      -2.19929661       0.23351715      -0.96776874       0.00000000
Si       0.29326887       1.25345034       2.05154882       0.00000000
Si       0.66623544       3.06893730      -0.71918777       0.00000000
Si      -2.13034104       1.36091547       2.21043314       0.00000000
Si      -2.05066665      -2.93057100      -0.04696105       0.00000000
Si       3.57116615       0.27606663      -0.51042235       0.00000000
Si      -3.11490864       2.00085183       0.19622644       0.00000000
Si       1.55068161      -3.12579036       1.67823076       0.00000000
