10
Lattice="16.28999089631971 0.0 0.0 0.0 16.28999089631971 0.0 0.0 0.0 34.35334932831803" Properties=species:S:1:pos:R:3:initial_magmoms:R:1 pbc="T T T"
Si       1.35115439      -1.35360126      -1.35596181       0.00000000
Si       1.35463556       1.35775521       1.35682064       0.00000000
Si      -1.35993560      -1.35620766       1.35664888       0.00000000
Si      -1.36193927       1.35762489      -1.35984374       0.00000000
Si       2.70066360      -0.01005093      -2.71989704       0.00000000
Si       2.71172451       2.71414206      -0.00058401       0.00000000
Si       2.71292997       0.00026064       2.71350387       0.00000000
Si       2.71477074      -2.71230129      -0.00257650       0.00000000
Si      -0.00197829      -2.71511946       2.71370999       0.00000000
Si      -0.00262935       2.71533123       2.71364129       0.00000000
