10
Lattice="16.28999089631971 0.0 0.0 0.0 16.28999089631971 0.0 0.0 0.0 34.35334932831803" Properties=species:S:1:pos:R:3:initial_magmoms:R:1 pbc="T T T"
Si       1.35514881       1.35682668       1.35833219       0.00000000
Si       1.35713619      -1.35733167      -1.35712982       0.00000000
Si      -1.35829441       1.35749457      -1.35668323       0.00000000
Si      -1.35762000      -1.35887922       1.35702676       0.00000000
Si      -2.71292997      -0.00026064      -2.71350387       0.00000000
Si      -0.00120546       2.71388142      -2.71408788       0.00000000
Si       0.00184077      -2.71256193      -2.71608038       0.00000000
Si       2.71474479       2.71515204       0.00037789       0.00000000
Si       2.71492398      -2.71502172       0.00027483       0.00000000
Si      -2.71490826      -2.71538010       0.00020612       0.00000000
