10
Lattice="16.28999089631971 0.0 0.0 0.0 16.28999089631971 0.0 0.0 0.0 34.35334932831803" Properties=species:S:1:pos:R:3:initial_magmoms:R:1 pbc="T T T"
Si      -1.35651717      -1.35389448      -1.36578687       0.00000000
Si      -1.20743109       1.39391901       1.46987758       0.00000000
Si       1.21453353      -1.30484529       1.54676042       0.00000000
Si       1.36220238       1.36293543      -1.36314166       0.00000000
Si      -2.49880781      -0.06936282       2.79014624       0.00000000
Si       2.14685910       0.30665925       3.10705606       0.00000000
Si      -2.69707828      -2.70881523       0.00371016       0.00000000
Si       2.71790505      -2.69342118       0.03486867       0.00000000
Si      -2.69935074       2.72803743       0.02418477       0.00000000
Si       0.00267156      -2.70637173      -2.72308846       0.00000000
