10
Lattice="16.28999089631971 0.0 0.0 0.0 16.28999089631971 0.0 0.0 0.0 34.35334932831803" Properties=species:S:1:pos:R:3:initial_magmoms:R:1 pbc="T T T"
Si       1.29137672       1.46328183      -1.32026866       0.00000000
Si      -1.59275868       0.83409687       1.53418709       0.00000000
Si       0.94733192      -2.00660220       0.81592686       0.00000000
Si      -1.45042658      -1.22003955      -1.42109580       0.00000000
Si      -2.41282986      -1.33333650       1.95151181       0.00000000
Si       2.83910591       2.14839036       0.49516945       0.00000000
Si       2.49880781       0.06936282      -2.79014624       0.00000000
Si      -2.48646066      -2.83507902      -0.01776069       0.00000000
Si      -2.88100446       2.53607607       0.14641406       0.00000000
Si      -0.19827048      -2.63945241      -2.78643607       0.00000000
