10
Lattice="16.28999089631971 0.0 0.0 0.0 16.28999089631971 0.0 0.0 0.0 34.35334932831803" Properties=species:S:1:pos:R:3:initial_magmoms:R:1 pbc="T T T"
Si      -1.29137672      -1.46328183       1.32026866       0.00000000
Si       1.20743109      -1.39391901      -1.46987758       0.00000000
Si      -1.49191965       1.33411842      -1.44569281       0.00000000
Si       1.54772919       0.68510853       1.81543811       0.00000000
Si       2.42196462      -2.69876430       0.07688284       0.00000000
Si       2.51643033       2.70182682       0.08725756       0.00000000
Si       2.56963347      -0.03098358      -2.83301924       0.00000000
Si      -2.74180329      -2.68332138      -0.10082714       0.00000000
Si       3.35429019      -1.08725976       1.63717848       0.00000000
Si      -0.14781546       2.68721469      -2.83322536       0.00000000
