10
Lattice="16.28999089631971 0.0 0.0 0.0 16.28999089631971 0.0 0.0 0.0 34.35334932831803" Properties=species:S:1:pos:R:3:initial_magmoms:R:1 pbc="T T T"
Si      -1.35640314       1.35534429      -1.35998115       0.00000000
Si       1.35659862      -1.35774218      -1.35994680       0.00000000
Si      -1.34219989      -1.35684623       1.38320403       0.00000000
Si       1.34258922       1.35540945       1.38725773       0.00000000
Si      -2.71391711       2.71342530       0.00395064       0.00000000
Si      -2.71468992      -2.71351394       0.00346969       0.00000000
Si       2.71586880       2.71379997       0.00477512       0.00000000
Si       2.71523349      -2.71486751      -0.00096189       0.00000000
Si       0.00017919       2.71435383      -2.71645826       0.00000000
Si      -2.71472581      -0.00109143      -2.71693921       0.00000000
