10
Lattice="16.28999089631971 0.0 0.0 0.0 16.28999089631971 0.0 0.0 0.0 34.35334932831803" Properties=species:S:1:pos:R:3:initial_magmoms:R:1 pbc="T T T"
Si       1.34219989       1.35684623      -1.38320403       0.00000000
Si      -1.37249003      -1.35666771      -1.37973434       0.00000000
Si      -1.34181691       1.36836326       1.44637988       0.00000000
Si       1.29510550      -1.45163841       1.48513047       0.00000000
Si      -2.38896664      -0.43766506       2.57876996       0.00000000
Si      -0.71296606      -2.27715045       2.77757291       0.00000000
Si       2.68478911       2.71225568       0.00405370       0.00000000
Si       2.69073496      -2.73253740       0.00020612       0.00000000
Si       2.69879851      -0.00089595      -2.74315083       0.00000000
Si      -2.74146595       2.70590258       0.00219862       0.00000000
