10
Lattice="16.28999089631971 0.0 0.0 0.0 16.28999089631971 0.0 0.0 0.0 34.35334932831803" Properties=species:S:1:pos:R:3:initial_magmoms:R:1 pbc="T T T"
Si      -1.35122712      -1.32973641      -1.36389400       0.00000000
Si       1.35834328      -1.35452979       1.35950021       0.00000000
Si      -1.35425842       1.36199061       1.35867573       0.00000000
Si       1.36585297       1.37453391      -1.39138013       0.00000000
Si       0.04270423      -2.64564261      -2.72028866       0.00000000
Si       2.71852570      -2.70726768       0.00185508       0.00000000
Si      -2.71532050      -2.71104696       0.00024047       0.00000000
Si      -2.59918909       0.13983336      -2.81983785       0.00000000
Si       0.00125433      -2.71091664       2.71690486       0.00000000
Si      -2.71318651       0.00420282       2.71618344       0.00000000
