10
Lattice="16.28999089631971 0.0 0.0 0.0 16.28999089631971 0.0 0.0 0.0 34.35334932831803" Properties=species:S:1:pos:R:3:initial_magmoms:R:1 pbc="T T T"
Si       1.55778012       1.41273396      -1.07206557       0.00000000
Si       1.06319943       0.96650199       1.87524733       0.00000000
Si       1.28169720      -1.99448244      -0.46359871       0.00000000
Si      -2.08546046       0.73133955      -1.05430488       0.00000000
Si       3.13505937       0.93123414       0.67473451       0.00000000
Si      -3.57116615      -0.27606663       0.51042235       0.00000000
Si       0.27363942      -3.42979434       1.42827565       0.00000000
Si       3.54485061      -1.39243662       0.26723485       0.00000000
Si       1.37512035      -0.48557232       3.60583262       0.00000000
Si       0.99113247       3.68998866      -0.91517374       0.00000000
