10
Lattice="16.28999089631971 0.0 0.0 0.0 16.28999089631971 0.0 0.0 0.0 34.35334932831803" Properties=species:S:1:pos:R:3:initial_magmoms:R:1 pbc="T T T"
Si      -0.09498699      -0.75883707      -2.19019901       0.00000000
Si      -2.05894197       0.07519464       1.06636291       0.00000000
Si       0.71394183       2.28848436      -0.03476561       0.00000000
Si       1.54360782      -1.43609382       1.14829570       0.00000000
Si      -1.23261543       0.71664597       3.17823624       0.00000000
Si       1.16087427       1.12197375       3.10516663       0.00000000
Si       2.70026298       2.05703604       1.33775452       0.00000000
Si       2.22057135      -0.49604679      -2.90990208       0.00000000
Si      -3.02955556       2.11219398       0.43103171       0.00000000
Si       3.58158456      -0.19961766       1.05196885       0.00000000
