10
Lattice="10.86 0.0 0.0 0.0 10.86 0.0 0.0 0.0 10.86" Properties=species:S:1:pos:R:3:initial_magmoms:R:1 pbc="T T T"
Si       1.32599514      -1.30147326      -1.16074938       0.00000000
Si      -1.38900486       1.41352674      -1.16074938       0.00000000
Si      -1.38900486      -1.30147326       1.55425062       0.00000000
Si       2.41893468       0.07641096       2.62362396       0.00000000
Si      -0.03150486      -2.65897326      -2.51824938       0.00000000
Si       2.68349514       0.05602674      -2.51824938       0.00000000
Si      -2.74650486       0.05602674      -2.51824938       0.00000000
Si      -0.03150486       2.77102674      -2.51824938       0.00000000
Si       2.68349514      -2.65897326       0.19675062       0.00000000
Si      -2.74650486      -2.65897326       0.19675062       0.00000000
