10
Lattice="16.28999089631971 0.0 0.0 0.0 16.28999089631971 0.0 0.0 0.0 34.397273925272025" Properties=species:S:1:pos:R:3:initial_magmoms:R:1 pbc="T T T"
Si       1.29217183      -1.33871872      -1.41911192       0.00000000
Si      -1.33375729      -1.35551859       1.36414849       0.00000000
Si       1.38395784       1.35573525       1.35888570       0.00000000
Si      -1.33918186       1.34527707      -1.48411937       0.00000000
Si       2.34531382       0.55110699      -2.38986029       0.00000000
Si       0.53243881       2.11458861      -2.71101720       0.00000000
Si      -2.69221297      -2.71109557      -0.00902929       0.00000000
Si      -2.69134960      -0.00172674       2.71898907       0.00000000
Si      -2.69351617       2.72337849      -0.02961951       0.00000000
Si       0.02451650       2.71412577       2.71922985       0.00000000
