10
Lattice="16.28999089631971 0.0 0.0 0.0 16.28999089631971 0.0 0.0 0.0 34.397273925272025" Properties=species:S:1:pos:R:3:initial_magmoms:R:1 pbc="T T T"
Si      -0.19937168      -2.27144502      -0.42370586       0.00000000
Si      -2.33394879       0.56347110      -0.24023070       0.00000000
Si       0.91493600      -0.16601139       2.23097404       0.00000000
Si       1.63697395       0.58657032      -1.68030777       0.00000000
Si       1.34337928       3.20325650       1.00120201       0.00000000
Si       1.89539851      -3.15177291       0.05562042       0.00000000
Si       2.02335646       2.83953663      -1.19155663       0.00000000
Si       2.54945830      -1.85150511       1.91486291       0.00000000
Si      -0.99677370      -0.22265172       3.57735288       0.00000000
Si      -1.00573320       3.36762260       1.28556443       0.00000000
