10
Lattice="16.28999089631971 0.0 0.0 0.0 16.28999089631971 0.0 0.0 0.0 34.397273925272025" Properties=species:S:1:pos:R:3:initial_magmoms:R:1 pbc="T T T"
Si       1.72245573      -0.92460411       1.35146965       0.00000000
Si      -1.82962764      -0.26715600       1.51176103       0.00000000
Si      -0.24672834       2.33697969      -0.45610811       0.00000000
Si       0.04311963      -1.26724960      -2.12764457       0.00000000
Si       0.35624601       2.16963252      -2.73843730       0.00000000
Si      -0.97977834       0.31584681      -3.49462739       0.00000000
Si       3.63107358      -0.71793288       0.02992565       0.00000000
Si      -1.41498198      -3.03859718      -1.65327150       0.00000000
Si       1.25082765      -3.23845919       1.42937952       0.00000000
Si      -1.27210239      -2.47114055       2.54030889       0.00000000
