10
Lattice="16.28999089631971 0.0 0.0 0.0 16.28999089631971 0.0 0.0 0.0 34.397273925272025" Properties=species:S:1:pos:R:3:initial_magmoms:R:1 pbc="T T T"
Si      -1.96260291      -0.58577211      -1.22722662       0.00000000
Si       1.82962764       0.26715600      -1.51176103       0.00000000
Si      -0.69646266       2.11204737       0.92982763       0.00000000
Si       0.55752525      -2.20398455       1.02854786       0.00000000
Si      -2.89714392       1.17548640       1.48954038       0.00000000
Si      -2.09945520       1.55864349      -2.27297313       0.00000000
Si      -0.69168969       3.18909330      -1.35312072       0.00000000
Si       3.55208337      -0.65744811      -0.16029139       0.00000000
Si       1.58289930       2.60413569      -1.96786914       0.00000000
Si      -3.51210771      -0.97612449       0.51090300       0.00000000
