10
Lattice="16.28999089631971 0.0 0.0 0.0 16.28999089631971 0.0 0.0 0.0 34.397273925272025" Properties=species:S:1:pos:R:3:initial_magmoms:R:1 pbc="T T T"
Si      -2.16694467      -0.01457955       0.83389358       0.00000000
Si      -0.33238116       0.77454063      -2.22708714       0.00000000
Si       1.39834989       1.27679391       1.50271455       0.00000000
Si       0.36422811      -2.40399675      -0.40138201       0.00000000
Si      -1.96172325       1.08727605       2.81280425       0.00000000
Si      -0.08597862       3.07674117      -1.93054808       0.00000000
Si       0.93048480      -0.63203571      -3.62461477       0.00000000
Si      -2.72243367      -2.18554785       1.60717913       0.00000000
Si      -0.71296443      -3.53876792       1.44506468       0.00000000
Si      -3.69064611       1.11219975      -0.64291981       0.00000000
