10
Lattice="16.28999089631971 0.0 0.0 0.0 16.28999089631971 0.0 0.0 0.0 34.397273925272025" Properties=species:S:1:pos:R:3:initial_magmoms:R:1 pbc="T T T"
Si      -0.96876630       1.18824147       1.75071903       0.00000000
Si       2.24438733      -0.52556427       0.33726546       0.00000000
Si      -1.26369675      -1.94054625      -0.30266178       0.00000000
Si      -0.45783045       1.43992197      -1.82797535       0.00000000
Si      -2.87772624       1.27428525      -1.43367918       0.00000000
Si      -0.08772165      -2.86094754      -2.16482804       0.00000000
Si       2.03048334      -2.59519248       1.42783164       0.00000000
Si      -3.25661535      -1.05979482      -1.13641777       0.00000000
Si      -2.75055021       2.28288060       0.68842743       0.00000000
Si       0.66134142       2.78562258       2.28556254       0.00000000
