10
Lattice="16.28999089631971 0.0 0.0 0.0 16.28999089631971 0.0 0.0 0.0 34.397273925272025" Properties=species:S:1:pos:R:3:initial_magmoms:R:1 pbc="T T T"
Si      -1.94479794      -0.65133936      -1.12616738       0.00000000
Si       0.77647914       1.99756125      -1.12207410       0.00000000
Si       1.92129147      -1.54826676       0.24036828       0.00000000
Si      -1.17595881      -1.07787672       1.92126081       0.00000000
Si      -0.53256897      -1.94145849      -2.47749944       0.00000000
Si       2.19036969       0.76893687      -2.48898813       0.00000000
Si      -0.31723146       0.45589194       3.38094434       0.00000000
Si       2.20030659      -0.06146217       2.73138586       0.00000000
Si       0.94100814      -3.22519194      -1.12090459       0.00000000
Si       3.57829398      -0.51245082      -1.06442424       0.00000000
