10
Lattice="16.28999089631971 0.0 0.0 0.0 16.28999089631971 0.0 0.0 0.0 34.397273925272025" Properties=species:S:1:pos:R:3:initial_magmoms:R:1 pbc="T T T"
Si      -1.35351981       1.35295711       1.35958741       0.00000000
Si      -1.35694071      -1.35796698      -1.35645726       0.00000000
Si       1.35847197       1.35684430      -1.35690442       0.00000000
Si       1.35697329      -1.35881406       1.36065373       0.00000000
Si      -2.71391400      -0.00102627      -2.71480636       0.00000000
Si       0.00130320       2.71435450      -2.71456558       0.00000000
Si      -2.71423980       2.71518855      -0.00048156       0.00000000
Si      -2.71471221      -2.71538010       0.00048156       0.00000000
Si       2.71547784      -0.00053757      -2.71480636       0.00000000
Si       0.00109143      -2.71588509      -2.71477196       0.00000000
