10
Lattice="16.28999089631971 0.0 0.0 0.0 16.28999089631971 0.0 0.0 0.0 34.397273925272025" Properties=species:S:1:pos:R:3:initial_magmoms:R:1 pbc="T T T"
Si       1.30725621       1.79602137       0.90588711       0.00000000
Si       1.29844332      -1.36743147      -1.53508240       0.00000000
Si      -1.40553378       1.34457660      -1.52706783       0.00000000
Si      -0.58771062      -0.94123620       2.40915201       0.00000000
Si       0.16501770       1.21235067       3.00979755       0.00000000
Si       2.59533909       0.88410717       2.70121943       0.00000000
Si      -2.72251512       2.76949794      -0.04406293       0.00000000
Si       2.61526176      -2.86378200      -0.21040824       0.00000000
Si       2.65970088      -0.00791694      -2.92112133       0.00000000
Si      -0.05079222       2.70385423      -2.92218764       0.00000000
