10
Lattice="16.28999089631971 0.0 0.0 0.0 16.28999089631971 0.0 0.0 0.0 34.397273925272025" Properties=species:S:1:pos:R:3:initial_magmoms:R:1 pbc="T T T"
Si      -1.90861785      -0.20667123       1.32154400       0.00000000
Si      -0.28341342       0.20409741      -2.32164530       0.00000000
Si       1.44233289      -1.84437221       0.19475747       0.00000000
Si       0.94547160       2.02556376       0.74119287       0.00000000
Si      -0.39325689      -3.48093584       0.27689821       0.00000000
Si       1.97594442       0.25384707      -2.89690563       0.00000000
Si      -0.86581350      -0.02179602       3.45603363       0.00000000
Si       2.79119376      -1.62701914      -1.75099421       0.00000000
Si      -3.63107358       0.71793288      -0.02992565       0.00000000
Si       0.82372014       1.69148844       3.21384229       0.00000000
