10
Lattice="16.28999089631971 0.0 0.0 0.0 16.28999089631971 0.0 0.0 0.0 34.397273925272025" Properties=species:S:1:pos:R:3:initial_magmoms:R:1 pbc="T T T"
Si       1.25634996      -1.42467453      -1.35167603       0.00000000
Si      -1.10050353      -1.56146166       1.34809871       0.00000000
Si       0.98028333       1.67692518       1.36127288       0.00000000
Si      -1.47357711       1.28373345      -1.35659484       0.00000000
Si      -0.94100814       3.22519194       1.12090459       0.00000000
Si      -2.36336949      -0.15488532       2.74562634       0.00000000
Si       0.72568692      -3.22952508       1.71852316       0.00000000
Si       2.59745679      -0.07105698      -2.71146982       0.00000000
Si       2.52960894      -2.77922061       0.13315192       0.00000000
Si       2.63728584       2.71274112       0.05648036       0.00000000
