10
Lattice="16.28999089631971 0.0 0.0 0.0 16.28999089631971 0.0 0.0 0.0 34.397273925272025" Properties=species:S:1:pos:R:3:initial_magmoms:R:1 pbc="T T T"
Si       2.26111716       0.28411389      -0.42628565       0.00000000
Si      -0.41120847      -0.05382216       2.30066295       0.00000000
Si      -0.51201099      -2.19480057      -0.72719317       0.00000000
Si      -1.26385965       1.84285512      -0.82691093       0.00000000
Si       2.55404394       1.53689634       1.55018281       0.00000000
Si      -2.69356779       0.39745971       2.20067002       0.00000000
Si       0.29784636      -2.28600828       2.64738767       0.00000000
Si      -2.66339871       0.55169343      -2.21976052       0.00000000
Si      -1.73916927      -1.61375256      -2.64418872       0.00000000
Si       3.05623206      -1.95520725      -0.18278722       0.00000000
