10
Lattice="16.28999089631971 0.0 0.0 0.0 16.28999089631971 0.0 0.0 0.0 34.397273925272025" Properties=species:S:1:pos:R:3:initial_magmoms:R:1 pbc="T T T"
Si       0.89068833       1.23823548       1.78353405       0.00000000
Si       0.51522012      -2.31570495      -0.26062829       0.00000000
Si      -2.51753805       0.51735411       0.64955848       0.00000000
Si      -0.27901512      -1.48680459      -2.49101757       0.00000000
Si       2.82196557      -0.21095550       1.72684731       0.00000000
Si      -2.20030659       0.06146217      -2.73138586       0.00000000
Si      -3.37626540      -1.01641455      -0.81012505       0.00000000
Si       2.26097055       1.33395552      -2.52077123       0.00000000
Si      -0.66842757       0.72003429       3.55004143       0.00000000
Si       0.66538134       3.52873980       0.95242665       0.00000000
