10
Lattice="16.28999089631971 0.0 0.0 0.0 16.28999089631971 0.0 0.0 0.0 34.397273925272025" Properties=species:S:1:pos:R:3:initial_magmoms:R:1 pbc="T T T"
Si       1.24547964      -1.29119427       1.47294369       0.00000000
Si       1.86168147       0.82717362      -1.24512821       0.00000000
Si      -0.98104733      -1.87949133      -1.25468396       0.00000000
Si      -1.47434002       1.43024571       1.43082076       0.00000000
Si      -1.26789631       0.46643157      -3.28071892       0.00000000
Si       0.73547232       1.67343912      -3.10776933       0.00000000
Si       0.83182767      -3.44297295      -0.93352706       0.00000000
Si       2.71900788      -2.52687222       0.07706714       0.00000000
Si       2.55278472       2.72339478      -0.03422875       0.00000000
Si       2.58078723       0.07998390       2.81793633       0.00000000
