10
Lattice="16.28999089631971 0.0 0.0 0.0 16.28999089631971 0.0 0.0 0.0 34.397273925272025" Properties=species:S:1:pos:R:3:initial_magmoms:R:1 pbc="T T T"
Si      -1.98575100      -0.82963341       0.87603026       0.00000000
Si       1.00299159      -0.03852585       2.17487205       0.00000000
Si      -0.38887488       2.44794717      -0.22265368       0.00000000
Si       0.21230757       1.89398943      -2.44289576       0.00000000
Si      -2.41078968       1.19441538       2.10834769       0.00000000
Si      -0.27318330       1.75604571       2.96931193       0.00000000
Si      -3.51010404      -0.79928514      -0.87950439       0.00000000
Si       3.29271399      -0.14761998       1.73400194       0.00000000
Si       3.43466505       1.48155921       0.05465730       0.00000000
Si      -2.22627285      -1.32660873      -2.80688792       0.00000000
