10
Lattice="16.28999089631971 0.0 0.0 0.0 16.28999089631971 0.0 0.0 0.0 34.397273925272025" Properties=species:S:1:pos:R:3:initial_magmoms:R:1 pbc="T T T"
Si       1.32098868      -0.80093043       1.80221178       0.00000000
Si       1.28660049       1.56962295      -1.26152073       0.00000000
Si      -0.27906399      -2.06946531      -1.21704503       0.00000000
Si      -2.05811118       1.10897433       0.61578034       0.00000000
Si       0.91781118       1.00550025      -3.47956138       0.00000000
Si      -3.03994206      -0.40211865       2.16665110       0.00000000
Si       2.97465174      -2.19162402       0.86430078       0.00000000
Si       1.69624512      -2.30941701      -2.58684843       0.00000000
Si       2.88375354       0.84761757       2.44829613       0.00000000
Si       3.41485641      -1.36917450      -1.26076399       0.00000000
