10
Lattice="16.28999089631971 0.0 0.0 0.0 16.28999089631971 0.0 0.0 0.0 34.397273925272025" Properties=species:S:1:pos:R:3:initial_magmoms:R:1 pbc="T T T"
Si      -0.47952873      -1.72379151      -1.50636066       0.00000000
Si       1.30251582      -1.43593092       1.39763364       0.00000000
Si       1.68634080       0.87029325      -1.50594789       0.00000000
Si      -1.70903277       1.30342806       1.38851760       0.00000000
Si       2.50833420       2.34308844       0.11347667       0.00000000
Si      -0.15177393       2.42308863       2.70610870       0.00000000
Si       2.97773055      -2.30907492      -0.08754111       0.00000000
Si       1.53282384      -2.92786686      -1.92769310       0.00000000
Si      -1.11037527      -0.89490744      -3.57824721       0.00000000
Si       2.67387318      -0.21856293       2.78760277       0.00000000
