10
Lattice="16.28999089631971 0.0 0.0 0.0 16.28999089631971 0.0 0.0 0.0 34.397273925272025" Properties=species:S:1:pos:R:3:initial_magmoms:R:1 pbc="T T T"
Si       0.88482393      -1.19821095       1.82739060       0.00000000
Si      -0.94635126      -1.15196364      -1.91830264       0.00000000
Si      -1.40752116       1.72064754       1.07522499       0.00000000
Si       1.90556740       0.96896178      -1.58275705       0.00000000
Si       0.98694594      -0.56216790      -3.18897305       0.00000000
Si      -2.67822261       0.52598781      -2.04189212       0.00000000
Si       3.52184003      -0.25879923      -0.11863626       0.00000000
Si       0.35308575       0.07172487       3.74373259       0.00000000
Si       0.47467431       3.36251664      -1.64776793       0.00000000
Si       0.01311345       3.74195961       0.69052566       0.00000000
