10
Lattice="16.28999089631971 0.0 0.0 0.0 16.28999089631971 0.0 0.0 0.0 34.397273925272025" Properties=species:S:1:pos:R:3:initial_magmoms:R:1 pbc="T T T"
Si      -1.23110046      -1.55683923       1.28566763       0.00000000
Si      -1.41626889       1.17547663      -1.53212423       0.00000000
Si       0.72259182       2.02944404       1.10508184       0.00000000
Si       1.32211269      -1.53343050      -1.51220820       0.00000000
Si       2.65588902       2.61923978      -0.16558857       0.00000000
Si      -2.82422988       2.53783865      -0.06697153       0.00000000
Si      -0.04585635       2.53964684      -2.90915107       0.00000000
Si      -2.67955839      -2.81535576      -0.16706765       0.00000000
Si       2.67037214      -0.18109986      -2.91155888       0.00000000
Si      -1.00927953       3.70739549       0.98149236       0.00000000
