10
Lattice="16.28999089631971 0.0 0.0 0.0 16.28999089631971 0.0 0.0 0.0 34.397273925272025" Properties=species:S:1:pos:R:3:initial_magmoms:R:1 pbc="T T T"
Si      -1.44233289       1.84437221      -0.19475747       0.00000000
Si       1.34886087       0.21735307      -1.94575168       0.00000000
Si       1.29951846      -0.40106487       1.95483257       0.00000000
Si      -1.83558978      -1.63656363       0.08214074       0.00000000
Si      -0.91572606      -2.93591919       1.89085360       0.00000000
Si      -1.72574631       2.04846962      -2.51640277       0.00000000
Si       0.53361153       2.09821928      -3.09166311       0.00000000
Si      -0.09373266      -1.46312400       3.51027816       0.00000000
Si      -3.35095074       1.63770098       1.12678653       0.00000000
Si      -0.49686129       3.86993597       0.54643540       0.00000000
