10
Lattice="16.28999089631971 0.0 0.0 0.0 16.28999089631971 0.0 0.0 0.0 34.397273925272025" Properties=species:S:1:pos:R:3:initial_magmoms:R:1 pbc="T T T"
Si      -1.27350333      -1.63162010      -1.04485218       0.00000000
Si       1.45160837      -1.21820497       1.50254256       0.00000000
Si      -1.40436090       1.44550292       1.39013221       0.00000000
Si       1.16701560       0.20049895      -2.26795113       0.00000000
Si       3.30182729       0.08846936      -1.20170383       0.00000000
Si       1.10583036       2.51057570      -2.47392212       0.00000000
Si       2.97918592      -2.25531533       0.00491881       0.00000000
Si      -0.06317262      -3.71110376      -0.80957469       0.00000000
Si      -2.66675445      -2.69367923       0.51059342       0.00000000
Si      -3.19163454       2.30530541       0.01940007       0.00000000
