10
Lattice="16.28999089631971 0.0 0.0 0.0 16.28999089631971 0.0 0.0 0.0 34.397273925272025" Properties=species:S:1:pos:R:3:initial_magmoms:R:1 pbc="T T T"
Si       1.35721494      -1.35685926       1.36134167       0.00000000
Si      -1.35850455       1.35987291       1.36106649       0.00000000
Si      -1.36081773      -1.34760654      -1.38750769       0.00000000
Si       1.37184456       1.35334062      -1.38340066       0.00000000
Si       2.71010770       2.71740006      -0.00034397       0.00000000
Si      -2.71319724       2.71453302       0.00333654       0.00000000
Si      -2.71454931      -2.71625976       0.00034397       0.00000000
Si       2.71665628      -2.71524978       0.00099752       0.00000000
Si       2.71436265       0.00096111       2.71793652       0.00000000
Si      -0.00100998      -2.71446786       2.71831489       0.00000000
