10
Lattice="16.28999089631971 0.0 0.0 0.0 16.28999089631971 0.0 0.0 0.0 34.397273925272025" Properties=species:S:1:pos:R:3:initial_magmoms:R:1 pbc="T T T"
Si      -1.35073422      -1.35782037      -1.36605410       0.00000000
Si       1.36184400       1.35866745      -1.36835872       0.00000000
Si       1.37404521      -1.30013748       1.43808203       0.00000000
Si      -1.52124165       1.20322827       1.40478545       0.00000000
Si       0.00855225       2.50025436       2.66768207       0.00000000
Si      -0.24593013      -2.34533646       2.88906305       0.00000000
Si      -2.69886856       2.70769122      -0.01341494       0.00000000
Si       2.71961550      -2.70501640       0.00416207       0.00000000
Si      -2.70662748      -2.71800768       0.01833376       0.00000000
Si       2.72275947       2.70713736      -0.00901209       0.00000000
