10
Lattice="16.28999089631971 0.0 0.0 0.0 16.28999089631971 0.0 0.0 0.0 34.397273925272025" Properties=species:S:1:pos:R:3:initial_magmoms:R:1 pbc="T T T"
Si       1.10223027       2.05987050       0.24821087       0.00000000
Si       1.07815365      -1.75034421       1.14009828       0.00000000
Si      -0.29292678      -1.25278245      -1.97646846       0.00000000
Si      -1.87944246       0.56097873       1.47392401       0.00000000
Si      -0.17213643       2.30739705       2.15361452       0.00000000
Si      -2.55404394      -1.53689634      -1.55018281       0.00000000
Si      -2.96525241      -1.59071850       0.75048014       0.00000000
Si       3.59139116       0.07073118      -1.12217729       0.00000000
Si       3.34616148      -1.71418041       0.46598013       0.00000000
Si       0.00316026      -3.77315496       0.52194453       0.00000000
