10
Lattice="16.28999089631971 0.0 0.0 0.0 16.28999089631971 0.0 0.0 0.0 34.397273925272025" Properties=species:S:1:pos:R:3:initial_magmoms:R:1 pbc="T T T"
Si       2.10289239       0.91261467       0.50378276       0.00000000
Si      -0.01019754      -2.34269748      -0.26719817       0.00000000
Si      -1.26842085       1.26695475      -1.53360332       0.00000000
Si      -2.37509829       0.33664914       1.89370858       0.00000000
Si      -3.16809549      -0.97357185       0.09727555       0.00000000
Si       0.00594585       1.01942820      -3.43900697       0.00000000
Si       3.51279908      -0.00260640      -1.16967995       0.00000000
Si      -2.97572688      -0.47946357      -2.21329383       0.00000000
Si      -2.12359698      -3.04188057       0.47282519       0.00000000
Si       2.63041050       0.20844684       2.68708214       0.00000000
