10
Lattice="16.28999089631971 0.0 0.0 0.0 16.28999089631971 0.0 0.0 0.0 34.397273925272025" Properties=species:S:1:pos:R:3:initial_magmoms:R:1 pbc="T T T"
Si      -1.35275768      -1.33582887       1.36502218       0.00000000
Si      -1.35174770       1.35594702      -1.35504697       0.00000000
Si       1.36317206      -1.35637056      -1.35528775       0.00000000
Si       1.37252741       1.34944731       1.35580371       0.00000000
Si       2.55015431      -0.15501564       2.77400410       0.00000000
Si      -2.50191944       0.25348869       2.85745194       0.00000000
Si      -0.01253051      -2.63265948       2.75133629       0.00000000
Si      -2.71077353      -0.00050499      -2.71312089       0.00000000
Si      -2.71427588      -2.71225242       0.00777379       0.00000000
Si      -2.71329848       2.71383255       0.00564116       0.00000000
