10
Lattice="16.28999089631971 0.0 0.0 0.0 16.28999089631971 0.0 0.0 0.0 34.397273925272025" Properties=species:S:1:pos:R:3:initial_magmoms:R:1 pbc="T T T"
Si      -1.35969372      -1.25806041      -1.50732378       0.00000000
Si      -0.06041961       2.39352228      -0.00106632       0.00000000
Si      -1.69878636      -0.95200389       1.43361038       0.00000000
Si       2.00549352      -1.19500182       0.81648855       0.00000000
Si       1.80945640       2.49150663       1.43450471       0.00000000
Si      -2.35014201       2.50261641       0.43980379       0.00000000
Si       3.27468815       1.16872605       0.18357835       0.00000000
Si      -2.84788296       0.98227071       2.12695662       0.00000000
Si       1.61023296      -0.98042994       3.17466377       0.00000000
Si       1.13153828       1.30965084       3.28862201       0.00000000
