10
Lattice="16.28999089631971 0.0 0.0 0.0 16.28999089631971 0.0 0.0 0.0 34.397273925272025" Properties=species:S:1:pos:R:3:initial_magmoms:R:1 pbc="T T T"
Si      -0.91862146      -1.53112968      -1.60621600       0.00000000
Si       1.64406336       0.94651416      -1.58354818       0.00000000
Si       1.61627262      -1.22776101       1.46412078       0.00000000
Si      -1.90556740      -0.96896178       1.58275705       0.00000000
Si      -1.43089309       2.39355486      -0.06501088       0.00000000
Si       1.64000715       1.34946360       2.68904279       0.00000000
Si      -2.85191866      -2.12092542      -0.33554559       0.00000000
Si      -2.25884863      -0.23429907      -2.99253011       0.00000000
Si       3.17385726       2.24354025      -0.32065157       0.00000000
Si       0.46643646       2.45097711      -3.00174858       0.00000000
