10
Lattice="16.28999089631971 0.0 0.0 0.0 16.28999089631971 0.0 0.0 0.0 34.397273925272025" Properties=species:S:1:pos:R:3:initial_magmoms:R:1 pbc="T T T"
Si      -1.33074639      -1.34939844       1.37406867       0.00000000
Si       1.35935163      -1.35529542      -1.35986259       0.00000000
Si      -1.35584928       1.35927018      -1.35958741       0.00000000
Si       1.36559070       1.36104579       1.40220566       0.00000000
Si      -2.63608038       0.07912053       2.74734620       0.00000000
Si       2.70974376      -2.70563868       0.00041277       0.00000000
Si      -2.71163340       2.71280524      -0.00144469       0.00000000
Si       2.71385015       2.71337643       0.00285498       0.00000000
Si       0.00102627      -2.71285515      -2.71611346       0.00000000
Si      -2.71371852       0.00118917      -2.71563190       0.00000000
