10
Lattice="16.28999089631971 0.0 0.0 0.0 16.28999089631971 0.0 0.0 0.0 34.397273925272025" Properties=species:S:1:pos:R:3:initial_magmoms:R:1 pbc="T T T"
Si      -0.49774095      -1.52034570       1.68715283       0.00000000
Si       2.28972240      -0.10909413      -0.44087011       0.00000000
Si      -1.27617489       1.79457156       0.79443988       0.00000000
Si      -1.00299159       0.03852585      -2.17487205       0.00000000
Si       1.22087034      -0.58010319       3.01323728       0.00000000
Si      -2.98874259      -0.79110756      -1.29884179       0.00000000
Si       2.35014201      -2.50261641      -0.43980379       0.00000000
Si       2.43167346       1.52008506      -2.12021475       0.00000000
Si      -3.41378127       1.23294123      -0.06652436       0.00000000
Si       0.65135565      -3.45462030       0.99380659       0.00000000
