10
Lattice="16.28999089631971 0.0 0.0 0.0 16.28999089631971 0.0 0.0 0.0 34.397273925272025" Properties=species:S:1:pos:R:3:initial_magmoms:R:1 pbc="T T T"
Si       0.08043676       2.31045957       0.07722192       0.00000000
Si      -1.18248525      -0.44155674      -1.97433583       0.00000000
Si      -1.38024585      -0.85761963       1.69905430       0.00000000
Si       2.22840358      -0.74495799       0.18739645       0.00000000
Si      -0.59383566      -2.69364924      -2.20658636       0.00000000
Si      -3.44255985      -0.02963151       0.97970370       0.00000000
Si      -0.43870273       0.24951393       3.56053261       0.00000000
Si      -3.45049308      -0.47772054      -1.30021768       0.00000000
Si       3.01077970      -0.96850566      -1.98458623       0.00000000
Si      -1.13022693       3.02679603      -1.88596919       0.00000000
