10
Lattice="16.28999089631971 0.0 0.0 0.0 16.28999089631971 0.0 0.0 0.0 34.397273925272025" Properties=species:S:1:pos:R:3:initial_magmoms:R:1 pbc="T T T"
Si      -1.35273855       1.35718506       1.36192642       0.00000000
Si       1.36407736      -1.35803214       1.36089451       0.00000000
Si      -1.33826313      -1.36405944      -1.38305668       0.00000000
Si       1.36772632       1.34939844      -1.37895309       0.00000000
Si      -2.71038463       2.70987408       0.00127270       0.00000000
Si      -2.71010770      -2.71740006       0.00034397       0.00000000
Si      -2.71136203      -0.00107514       2.71859006       0.00000000
Si       2.71686412      -2.71432125       0.00405888       0.00000000
Si       0.00395358       2.71331127       2.71848687       0.00000000
Si       0.00425495      -2.71643895       2.71828049       0.00000000
