10
Lattice="16.28999089631971 0.0 0.0 0.0 16.28999089631971 0.0 0.0 0.0 34.397273925272025" Properties=species:S:1:pos:R:3:initial_magmoms:R:1 pbc="T T T"
Si      -1.36772632      -1.34939844       1.37895309       0.00000000
Si       1.35553977       1.36213722       1.38201444       0.00000000
Si      -1.15098950       1.59311313      -1.38020859       0.00000000
Si       1.32113529      -1.42030881      -1.46915311       0.00000000
Si       2.43331875       0.20487933      -2.83486809       0.00000000
Si      -2.70598945      -2.71345788      -0.00410360       0.00000000
Si       2.69874801       2.72142369       0.01531711       0.00000000
Si       2.72137482      -2.70971118       0.00114199       0.00000000
Si      -2.70481508       2.73456972       0.01454318       0.00000000
Si      -0.00364896      -2.70743058       2.73984759       0.00000000
