10
Lattice="16.28999089631971 0.0 0.0 0.0 16.28999089631971 0.0 0.0 0.0 34.397273925272025" Properties=species:S:1:pos:R:3:initial_magmoms:R:1 pbc="T T T"
Si       1.35576783      -1.35614576      -1.35938103       0.00000000
Si       1.35073422       1.35782037       1.36605410       0.00000000
Si      -1.35748968       1.35969372      -1.35845230       0.00000000
Si      -1.35589326      -1.36018731       1.38438786       0.00000000
Si      -0.17050743       2.56104864       2.77083955       0.00000000
Si       2.71257822       2.71648782      -0.00230462       0.00000000
Si       2.71383255       0.00037467      -2.71625105       0.00000000
Si      -0.00068418      -2.71523288      -2.71611346       0.00000000
Si      -0.00068418       2.71544526      -2.71690460       0.00000000
Si      -2.71691313       0.00094482      -2.71573509       0.00000000
