10
Lattice="16.28999089631971 0.0 0.0 0.0 16.28999089631971 0.0 0.0 0.0 34.397273925272025" Properties=species:S:1:pos:R:3:initial_magmoms:R:1 pbc="T T T"
Si      -0.47869468       2.29008078       0.11395823       0.00000000
Si      -2.23265757      -0.83031759       0.20057062       0.00000000
Si       0.39526056      -0.21457188      -2.35817523       0.00000000
Si       1.78171060      -0.83901645       1.37310555       0.00000000
Si      -1.61023296       0.98042994      -3.17466377       0.00000000
Si      -1.97868018      -3.14258535       0.31057316       0.00000000
Si      -3.30901932       0.02842605      -1.74105339       0.00000000
Si       0.38871361       3.11559282       2.10858847       0.00000000
Si       1.40282149      -3.17309652       1.67036695       0.00000000
Si       0.19922344       3.47193657      -1.74015906       0.00000000
