10
Lattice="16.28999089631971 0.0 0.0 0.0 16.28999089631971 0.0 0.0 0.0 34.397273925272025" Properties=species:S:1:pos:R:3:initial_magmoms:R:1 pbc="T T T"
Si      -2.09477020       0.88032789      -0.47932628       0.00000000
Si      -0.57459717      -2.06568603       0.90729740       0.00000000
Si       0.65405979       1.30026780       1.85924249       0.00000000
Si       1.43645220       0.40998672      -1.88215109       0.00000000
Si      -0.70177320      -3.07428138      -1.21480920       0.00000000
Si       1.89082917       2.69547372      -1.32842346       0.00000000
Si       2.43781479       2.53809603       1.03167801       0.00000000
Si      -1.89539851       3.15177291      -0.05562042       0.00000000
Si       3.27510450      -0.96743052      -1.46044027       0.00000000
Si       1.71812259      -2.90864466      -1.60910537       0.00000000
