10
Lattice="16.28999089631971 0.0 0.0 0.0 16.28999089631971 0.0 0.0 0.0 34.397273925272025" Properties=species:S:1:pos:R:3:initial_magmoms:R:1 pbc="T T T"
Si      -0.97168940       1.88473671      -0.96243626       0.00000000
Si      -0.74967299      -2.17583901      -0.41882144       0.00000000
Si       2.11325283      -0.19137492      -1.06208522       0.00000000
Si      -0.82960802       0.20636172       2.26172522       0.00000000
Si       0.46099071      -2.89217547       1.54436967       0.00000000
Si      -3.04586252      -1.87014087      -0.72495735       0.00000000
Si       0.59307980       2.75463900      -2.44870890       0.00000000
Si      -1.78174223       3.28781070       0.70882502       0.00000000
Si      -2.73053699       1.59567066       2.14584074       0.00000000
Si       2.68785000       1.87431111      -1.96938262       0.00000000
