10
Lattice="16.28999089631971 0.0 0.0 0.0 16.28999089631971 0.0 0.0 0.0 34.397273925272025" Properties=species:S:1:pos:R:3:initial_magmoms:R:1 pbc="T T T"
Si       1.35589326       1.36018731      -1.38438786       0.00000000
Si      -1.36281588      -1.35674753      -1.38218643       0.00000000
Si      -1.37729899       1.44359211       1.36378388       0.00000000
Si       1.40065818      -1.29254618       1.49442480       0.00000000
Si      -0.18498761      -2.51020985       2.84383061       0.00000000
Si       2.46069735       0.37267122       2.87072929       0.00000000
Si      -2.71107532      -2.70907817       0.01716425       0.00000000
Si       2.70662748       2.71800768      -0.01833376       0.00000000
Si       2.71763952      -2.71746752       0.01141990       0.00000000
Si      -0.00441459      -2.71168457      -2.74301214       0.00000000
