10
Lattice="16.28999089631971 0.0 0.0 0.0 16.28999089631971 0.0 0.0 0.0 34.397273925272025" Properties=species:S:1:pos:R:3:initial_magmoms:R:1 pbc="T T T"
Si      -1.35855179       1.35567009      -1.35580371       0.00000000
Si      -1.35610015      -1.35757602       1.35724839       0.00000000
Si       1.35910728       1.35728280       1.35724839       0.00000000
Si       1.36321236      -1.35935163      -1.35817712       0.00000000
Si      -2.69714249       0.01308087      -2.72564839       0.00000000
Si      -2.71279228      -2.71370223       0.00068795       0.00000000
Si      -2.71261799       2.71544526       0.00013759       0.00000000
Si      -2.71423714      -0.00058644       2.71439359       0.00000000
Si       0.00125433      -2.71477737       2.71446239       0.00000000
Si       0.00232947       2.71441049       2.71484076       0.00000000
