10
Lattice="16.28999089631971 0.0 0.0 0.0 16.28999089631971 0.0 0.0 0.0 34.397273925272025" Properties=species:S:1:pos:R:3:initial_magmoms:R:1 pbc="T T T"
Si       1.35373158      -1.35444834      -1.36175444       0.00000000
Si      -1.36187169       1.36039419      -1.36196082       0.00000000
Si      -1.36312602      -1.36511829       1.37007858       0.00000000
Si       1.36018242       1.35461124       1.39247122       0.00000000
Si       2.70803331      -2.70555723      -0.00020638       0.00000000
Si      -2.72437937      -2.70368388      -0.00357732       0.00000000
Si       2.71492398       2.71388887      -0.00264859       0.00000000
Si       2.71150308       0.00296478      -2.71869326       0.00000000
Si      -0.00332316      -2.71215468      -2.71982837       0.00000000
Si      -2.72027298       2.71533123      -0.00113511       0.00000000
