10
Lattice="16.28999089631971 0.0 0.0 0.0 16.28999089631971 0.0 0.0 0.0 34.397273925272025" Properties=species:S:1:pos:R:3:initial_magmoms:R:1 pbc="T T T"
Si      -0.87152640      -2.09513835      -0.50030863       0.00000000
Si      -2.17705166       0.93454101       0.03030402       0.00000000
Si       0.81070443       0.41264199      -2.19819342       0.00000000
Si       1.15430940       0.40653324       2.09183699       0.00000000
Si      -1.85324342       3.08919392       0.99043566       0.00000000
Si       0.21255192       2.68294412      -2.65753487       0.00000000
Si      -0.48266455      -0.18003708       3.77214476       0.00000000
Si       3.14556642       0.12313611      -2.22440415       0.00000000
Si      -1.54944453      -3.27699414       1.35380866       0.00000000
Si       0.59370534      -3.41791893      -1.75123499       0.00000000
