10
Lattice="16.28999089631971 0.0 0.0 0.0 16.28999089631971 0.0 0.0 0.0 34.46413024517268" Properties=species:S:1:pos:R:3:initial_magmoms:R:1 pbc="T T T"
Si      -2.10581970      -0.38766942       0.74670026       0.00000000
Si      -0.24848766      -0.00302994      -2.31712816       0.00000000
Si       1.45640745       1.61656326       1.05408601       0.00000000
Si      -0.97814282      -2.42457102       0.37758922       0.00000000
Si       0.60387030      -2.76236046       2.12847141       0.00000000
Si       0.02746494      -2.24964900      -3.00930614       0.00000000
Si       3.09596337       0.35405291       2.26009000       0.00000000
Si       0.21820455       2.91511898       2.55448276       0.00000000
Si       1.10221398       1.46401392      -3.47977625       0.00000000
Si      -3.04499915       0.64970289       2.61561634       0.00000000
