10
Lattice="16.28999089631971 0.0 0.0 0.0 16.28999089631971 0.0 0.0 0.0 34.46413024517268" Properties=species:S:1:pos:R:3:initial_magmoms:R:1 pbc="T T T"
Si       2.10581970       0.38766942      -0.74670026       0.00000000
Si      -2.03995990       0.78403658      -0.65685223       0.00000000
Si      -0.93917944       1.03737231       1.86891608       0.00000000
Si       1.12767688      -2.03690160      -0.36911104       0.00000000
Si       1.85733204       0.38463948      -3.06382843       0.00000000
Si      -1.82287936      -0.81254520       3.11221751       0.00000000
Si      -3.07755145      -0.93442698      -1.88322452       0.00000000
Si      -1.66496410       2.31699905      -2.45322709       0.00000000
Si       0.96469869       1.92894844       3.16709478       0.00000000
Si       0.35706703      -2.81080692      -2.59552956       0.00000000
