10
Lattice="16.28999089631971 0.0 0.0 0.0 16.28999089631971 0.0 0.0 0.0 34.46413024517268" Properties=species:S:1:pos:R:3:initial_magmoms:R:1 pbc="T T T"
Si       1.35485559      -1.35826101       1.36033445       0.00000000
Si      -1.35918873       1.35966766       1.36026552       0.00000000
Si       1.37200896       1.34762935      -1.36664138       0.00000000
Si      -1.36049193      -1.37057611      -1.38094401       0.00000000
Si       2.71269225      -2.71466401       0.00168874       0.00000000
Si       2.71365336       2.71510969       0.00048250       0.00000000
Si      -2.71578898      -2.71468030      -0.00017232       0.00000000
Si       0.01484019       2.66676097      -2.76282199       0.00000000
Si       2.71269225       0.00068581       2.71780837       0.00000000
Si      -0.00219915      -2.71397983       2.71780837       0.00000000
