10
Lattice="16.28999089631971 0.0 0.0 0.0 16.28999089631971 0.0 0.0 0.0 34.46413024517268" Properties=species:S:1:pos:R:3:initial_magmoms:R:1 pbc="T T T"
Si       1.35695700       1.35700587       1.35678464       0.00000000
Si      -1.35672894       1.35682668      -1.35795642       0.00000000
Si      -1.35829278      -1.35919850       1.35657785       0.00000000
Si       1.35790182      -1.35789042      -1.35830106       0.00000000
Si       0.00079821       2.71243161       2.71525802       0.00000000
Si      -2.71458189       2.71422351      -0.00055143       0.00000000
Si      -0.00026064       2.71463076      -2.71498231       0.00000000
Si       2.71425609      -0.00190593      -2.71546480       0.00000000
Si      -2.71397916       0.00109143      -2.71584391       0.00000000
Si      -2.71497285      -0.00193851       2.71501677       0.00000000
