10
Lattice="16.28999089631971 0.0 0.0 0.0 16.28999089631971 0.0 0.0 0.0 34.46413024517268" Properties=species:S:1:pos:R:3:initial_magmoms:R:1 pbc="T T T"
Si       1.35635427       1.35598449      -1.35716374       0.00000000
Si       1.35742941      -1.35747734       1.35761178       0.00000000
Si      -1.35790182       1.35789042       1.35830106       0.00000000
Si      -1.35783666      -1.35894682      -1.35747392       0.00000000
Si      -2.71463076       2.71471710       0.00034464       0.00000000
Si      -2.71489140      -2.71466564       0.00000000       0.00000000
Si       2.71505430      -2.71469822       0.00041357       0.00000000
Si      -0.00094482       2.71489629       2.71508570       0.00000000
Si       2.71552671       2.71465194      -0.00006893       0.00000000
Si      -2.71269225      -0.00068581      -2.71780837       0.00000000
