10
Lattice="16.28999089631971 0.0 0.0 0.0 16.28999089631971 0.0 0.0 0.0 34.46413024517268" Properties=species:S:1:pos:R:3:initial_magmoms:R:1 pbc="T T T"
Si      -1.21213890       1.77099993       0.81273357       0.00000000
Si       1.20594870      -0.41669820       2.02921466       0.00000000
Si       1.06878690       0.12362481      -2.16651983       0.00000000
Si      -2.21969169      -0.95094504      -0.49807589       0.00000000
Si      -2.76903936       0.44812161      -2.31874798       0.00000000
Si      -2.77462683       2.30428566      -0.88062795       0.00000000
Si       2.16968139      -2.03367618      -2.27797689       0.00000000
Si      -2.28991788       1.03858524       2.78222186       0.00000000
Si      -0.81751365       0.31200237      -3.66191928       0.00000000
Si      -2.23479252      -3.14735180       0.28605244       0.00000000
