10
Lattice="16.28999089631971 0.0 0.0 0.0 16.28999089631971 0.0 0.0 0.0 34.46413024517268" Properties=species:S:1:pos:R:3:initial_magmoms:R:1 pbc="T T T"
Si       1.34464176       0.49493907      -1.88205274       0.00000000
Si       1.31483106      -1.38461742       1.40834301       0.00000000
Si      -2.00756331      -0.78413544      -1.22595873       0.00000000
Si      -1.58902434       1.43268921       1.29864362       0.00000000
Si      -3.37390335       1.42407180      -0.42466725       0.00000000
Si      -0.18215478       1.51958007      -3.38455180       0.00000000
Si       1.88374302      -1.65393999      -2.75633929       0.00000000
Si       2.43392148       0.22051773       2.81420601       0.00000000
Si      -2.37172626       1.50026013      -2.49234390       0.00000000
Si      -0.26984385      -2.40358461       2.88391665       0.00000000
