10
Lattice="16.28999089631971 0.0 0.0 0.0 16.28999089631971 0.0 0.0 0.0 34.46413024517268" Properties=species:S:1:pos:R:3:initial_magmoms:R:1 pbc="T T T"
Si      -1.25473725      -1.58623712       1.33813953       0.00000000
Si       0.44268075      -0.97606422      -2.21704427       0.00000000
Si       2.00756331       0.78413544       1.22595873       0.00000000
Si      -0.36416295       2.28439557      -1.26638517       0.00000000
Si      -1.36634004       2.20820724       0.80129148       0.00000000
Si       0.41853897       2.21682465       2.52460234       0.00000000
Si       2.13587964      -2.48114945      -1.50704833       0.00000000
Si       1.82540853       2.30371551      -2.15859308       0.00000000
Si       3.35220507       1.27907451      -0.65609401       0.00000000
Si      -3.49469696       0.95899230       1.05367244       0.00000000
