10
Lattice="16.28999089631971 0.0 0.0 0.0 16.28999089631971 0.0 0.0 0.0 34.46413024517268" Properties=species:S:1:pos:R:3:initial_magmoms:R:1 pbc="T T T"
Si      -1.19356830       1.58092821       1.28802866       0.00000000
Si       1.80322155       1.39421223      -0.84743897       0.00000000
Si       0.92435976      -2.04200037       0.95820675       0.00000000
Si      -0.10823076       0.41042655      -2.45508815       0.00000000
Si      -2.11846563      -0.48205368      -1.23340298       0.00000000
Si      -2.78073558      -1.56691881       0.79212401       0.00000000
Si      -1.08463707      -2.87917605       1.90614318       0.00000000
Si       3.51749970      -0.31715001      -0.96472047       0.00000000
Si       1.99493856       2.96627868       0.99915016       0.00000000
Si      -3.06229194       0.34922502       2.07922214       0.00000000
