10
Lattice="16.28999089631971 0.0 0.0 0.0 16.28999089631971 0.0 0.0 0.0 34.46413024517268" Properties=species:S:1:pos:R:3:initial_magmoms:R:1 pbc="T T T"
Si       1.31499396      -1.36078515      -1.41251317       0.00000000
Si      -1.37981187       1.36648665      -1.42236991       0.00000000
Si       0.10823076      -0.41042655       2.45508815       0.00000000
Si      -2.01023487      -0.89248023       1.22168517       0.00000000
Si       1.91145231       0.98378568       1.60764918       0.00000000
Si      -2.48466483       2.75338467       0.10201388       0.00000000
Si       2.76705198      -2.53931778       0.14226801       0.00000000
Si      -3.59018568       0.87635313       1.06825078       0.00000000
Si       2.75294484       2.70303228       0.01213138       0.00000000
Si       2.66704767       0.00954594      -2.79493913       0.00000000
