10
Lattice="16.28999089631971 0.0 0.0 0.0 16.28999089631971 0.0 0.0 0.0 34.46413024517268" Properties=species:S:1:pos:R:3:initial_magmoms:R:1 pbc="T T T"
Si      -0.62747451      -2.16984429      -0.69241923       0.00000000
Si      -1.95152571       0.13611924       1.34317130       0.00000000
Si       1.88630055      -0.18837756       1.49539945       0.00000000
Si      -0.00272043       1.59897753      -1.83001187       0.00000000
Si      -1.40217804      -1.26294741       3.16384339       0.00000000
Si      -2.34334908      -1.70092035      -2.28362901       0.00000000
Si       3.37813875       1.53745020       0.60312262       0.00000000
Si       0.81751365      -0.31200237       3.66191928       0.00000000
Si      -2.12960799       2.52827316      -1.97806986       0.00000000
Si      -3.37603897       0.43735392      -1.85727302       0.00000000
