10
Lattice="16.28999089631971 0.0 0.0 0.0 16.28999089631971 0.0 0.0 0.0 34.46413024517268" Properties=species:S:1:pos:R:3:initial_magmoms:R:1 pbc="T T T"
Si      -0.78949485      -1.95370857      -0.97326758       0.00000000
Si       1.23370686       1.01718018      -1.70559629       0.00000000
Si       1.84340898       0.01466100       1.47554810       0.00000000
Si      -2.14399206       0.76080816       0.83224028       0.00000000
Si      -1.86727383      -2.68612326       0.99622071       0.00000000
Si       1.80656100      -2.32865550       1.86030586       0.00000000
Si       1.53839502       3.17892834      -0.83834044       0.00000000
Si      -0.38301048      -2.34797544       2.75251376       0.00000000
Si       1.29147120       1.92989259       2.84615286       0.00000000
Si      -2.53807974       2.60395650      -0.54825569       0.00000000
