10
Lattice="16.28999089631971 0.0 0.0 0.0 16.28999089631971 0.0 0.0 0.0 34.46413024517268" Properties=species:S:1:pos:R:3:initial_magmoms:R:1 pbc="T T T"
Si      -1.00217709      -0.07618833       2.06767665       0.00000000
Si      -1.48426335      -0.33814782      -1.75629306       0.00000000
Si       2.18957148       0.01931994      -0.89220790       0.00000000
Si       0.36416295      -2.28439557       1.26638517       0.00000000
Si       2.22641946       2.36263644      -1.27696567       0.00000000
Si       0.80684370      -3.26045979      -0.95065910       0.00000000
Si       0.38301048       2.34797544      -2.75251376       0.00000000
Si       2.01160323      -1.79343126      -2.50930026       0.00000000
Si       2.37172626      -1.50026013       2.49234390       0.00000000
Si      -0.40648437       0.39426687      -3.72578135       0.00000000
