10
Lattice="16.28999089631971 0.0 0.0 0.0 16.28999089631971 0.0 0.0 0.0 34.46413024517268" Properties=species:S:1:pos:R:3:initial_magmoms:R:1 pbc="T T T"
Si       1.19356830      -1.58092821      -1.28802866       0.00000000
Si      -1.86872364      -1.23170319       0.79119348       0.00000000
Si       1.02117123       0.33304905       2.19319508       0.00000000
Si      -0.33006798       1.97763858      -1.40138125       0.00000000
Si      -0.92489733      -2.06298189      -2.52143164       0.00000000
Si       3.18850686       1.38535047      -0.28887850       0.00000000
Si      -1.58716728      -3.14784702      -0.49590465       0.00000000
Si      -2.50484814      -0.29414853      -2.67486604       0.00000000
Si       2.99678985      -0.18671598      -2.13546763       0.00000000
Si       1.74293226       3.18011751      -0.93284113       0.00000000
