10
Lattice="16.28999089631971 0.0 0.0 0.0 16.28999089631971 0.0 0.0 0.0 34.46413024517268" Properties=species:S:1:pos:R:3:initial_magmoms:R:1 pbc="T T T"
Si      -0.06357987       0.85260231       2.18540618       0.00000000
Si      -0.61840098       1.67387895      -1.54264980       0.00000000
Si       2.16300249      -0.92841597      -0.35570449       0.00000000
Si      -1.91347227      -1.50338781      -0.06561974       0.00000000
Si      -2.69636967       2.03331780      -0.55497620       0.00000000
Si      -2.07791982       2.09782620       1.77628227       0.00000000
Si      -1.47220875       0.26370252      -3.16894408       0.00000000
Si       3.00641724      -0.68851314       1.85113840       0.00000000
Si       2.25359118       1.46580678       2.45346834       0.00000000
Si      -2.39358744      -1.76103045      -2.34366556       0.00000000
