10
Lattice="16.28999089631971 0.0 0.0 0.0 16.28999089631971 0.0 0.0 0.0 34.46413024517268" Properties=species:S:1:pos:R:3:initial_magmoms:R:1 pbc="T T T"
Si       1.35725800       1.35650898       1.35709482       0.00000000
Si      -1.35802015      -1.35817620       1.35719821       0.00000000
Si      -1.35855772       1.35719805      -1.36085141       0.00000000
Si       1.35860355      -1.35910473      -1.36112712       0.00000000
Si      -2.71184947      -0.00297326      -2.71212178       0.00000000
Si      -2.71533553       2.71283230       0.00055143       0.00000000
Si      -0.00004069       2.71380970       2.71453427       0.00000000
Si       2.71380286      -0.00083224       2.71474106       0.00000000
Si      -2.71520521      -0.00117986       2.71436195       0.00000000
Si      -0.00039276      -2.71555674       2.71449981       0.00000000
