10
Lattice="16.28999089631971 0.0 0.0 0.0 16.28999089631971 0.0 0.0 0.0 34.46413024517268" Properties=species:S:1:pos:R:3:initial_magmoms:R:1 pbc="T T T"
Si       0.06357987      -0.85260231      -2.18540618       0.00000000
Si      -2.01433995       1.24522389      -0.40912392       0.00000000
Si       2.31717105       0.61320447       0.26806215       0.00000000
Si      -0.11313405      -1.88281449       1.50518727       0.00000000
Si       0.36841464      -0.35479620       3.38692983       0.00000000
Si       3.06999711      -1.54111545      -0.33426779       0.00000000
Si      -1.84989240      -2.35599012      -2.25102592       0.00000000
Si       1.97965854      -3.03005403       1.14338262       0.00000000
Si       2.52058428       0.93584421       2.71019179       0.00000000
Si       2.22658236      -1.78101828      -2.54111067       0.00000000
