10
Lattice="16.28999089631971 0.0 0.0 0.0 16.28999089631971 0.0 0.0 0.0 34.46413024517268" Properties=species:S:1:pos:R:3:initial_magmoms:R:1 pbc="T T T"
Si      -0.24995376      -2.32627716      -0.44141683       0.00000000
Si      -1.71637956       0.58680443       1.70866360       0.00000000
Si       0.03468141       0.95440245      -2.34252824       0.00000000
Si       2.44408644       1.10275059       0.44841305       0.00000000
Si       0.96119145      -2.40301935       1.76356499       0.00000000
Si       2.62435158      -2.25179928      -0.56762454       0.00000000
Si       1.22119614       2.83506992       1.79882182       0.00000000
Si      -0.36347877       1.81610272       3.27439546       0.00000000
Si      -3.35593548       1.84931478       0.50265962       0.00000000
Si       1.79010810       2.56574735      -2.36586047       0.00000000
