10
Lattice="16.28999089631971 0.0 0.0 0.0 16.28999089631971 0.0 0.0 0.0 34.46413024517268" Properties=species:S:1:pos:R:3:initial_magmoms:R:1 pbc="T T T"
Si       1.35764118       1.35689184       1.35692249       0.00000000
Si      -1.35695700      -1.35731212       1.35726714       0.00000000
Si      -1.35718506       1.35694071      -1.35781856       0.00000000
Si       1.35718506      -1.35785784      -1.35771517       0.00000000
Si       0.00140094       2.71124244       2.71684337       0.00000000
Si       2.71485882      -0.00114030      -2.71405177       0.00000000
Si       2.71505430       2.71448415      -0.00024125       0.00000000
Si       2.71498914      -2.71515246      -0.00024125       0.00000000
Si      -2.71515204       2.71507059       0.00024125       0.00000000
Si      -2.71528236      -2.71518856      -0.00013786       0.00000000
