10
Lattice="16.28999089631971 0.0 0.0 0.0 16.28999089631971 0.0 0.0 0.0 34.46413024517268" Properties=species:S:1:pos:R:3:initial_magmoms:R:1 pbc="T T T"
Si       0.33860394      -0.16275176      -2.30606517       0.00000000
Si      -1.68129090       1.57637353       0.56211028       0.00000000
Si       2.00828007       1.25879998       0.22274180       0.00000000
Si      -1.35158130      -2.19478495       1.56870469       0.00000000
Si       1.45442007       1.40187505       2.47039024       0.00000000
Si      -0.71487036       2.18086285       2.75361662       0.00000000
Si       2.19827034      -1.85355832      -2.22745245       0.00000000
Si       0.58417569      -3.54465580       1.14045317       0.00000000
Si      -3.86408574       0.50887679       0.78168137       0.00000000
Si      -1.61396433      -0.91830055      -3.54639545       0.00000000
