10
Lattice="16.28999089631971 0.0 0.0 0.0 16.28999089631971 0.0 0.0 0.0 34.46413024517268" Properties=species:S:1:pos:R:3:initial_magmoms:R:1 pbc="T T T"
Si       0.55386000      -0.14307507      -2.24764844       0.00000000
Si      -2.16929043       0.77898780       0.28322638       0.00000000
Si      -0.04445541      -1.92725687       1.30663930       0.00000000
Si       1.64875977       1.48559913       0.83730651       0.00000000
Si      -1.45442007      -1.40187505      -2.47039024       0.00000000
Si       1.24950816       2.13074829      -2.54138638       0.00000000
Si       0.33967908       3.44904912       0.78802278       0.00000000
Si      -3.13571097       0.17449848      -1.90827996       0.00000000
Si       0.64909134      -1.15102697       3.43028573       0.00000000
Si      -3.28667040      -0.79966307       1.55781402       0.00000000
