10
Lattice="16.28999089631971 0.0 0.0 0.0 16.28999089631971 0.0 0.0 0.0 34.46413024517268" Properties=species:S:1:pos:R:3:initial_magmoms:R:1 pbc="T T T"
Si      -0.69354675      -0.77622990      -2.12364643       0.00000000
Si       1.57802859       1.74698032      -0.45389285       0.00000000
Si       1.07673642      -2.03323539       0.72102447       0.00000000
Si      -1.77762996       1.05620287       1.27162372       0.00000000
Si       1.05334398       2.98303294       1.46996490       0.00000000
Si      -0.64909134       1.15102697      -3.43028573       0.00000000
Si       2.70959715      -2.26698060      -1.05449958       0.00000000
Si       1.07530290      -2.20056627      -2.78894237       0.00000000
Si      -1.74327435      -0.02806930       3.36969775       0.00000000
Si       0.99966843       2.63662610      -2.59297922       0.00000000
