10
Lattice="16.28999089631971 0.0 0.0 0.0 16.28999089631971 0.0 0.0 0.0 34.46413024517268" Properties=species:S:1:pos:R:3:initial_magmoms:R:1 pbc="T T T"
Si       0.04258206       0.58577211      -2.24344381       0.00000000
Si       2.08541322      -0.77884445       0.70517096       0.00000000
Si      -0.53910126       2.14887906       0.87428654       0.00000000
Si      -1.75542669      -1.61134490       0.02333223       0.00000000
Si       0.65397834      -1.46299675       2.81427352       0.00000000
Si      -2.24386605       1.36076886      -2.24530488       0.00000000
Si      -3.44862558      -0.10625967      -0.68666371       0.00000000
Si      -1.88374302       1.65393999       2.75633929       0.00000000
Si      -1.02604194      -3.39370289      -1.43581093       0.00000000
Si      -2.06589780       3.17352006      -0.62821252       0.00000000
