10
Lattice="16.28999089631971 0.0 0.0 0.0 16.28999089631971 0.0 0.0 0.0 34.46413024517268" Properties=species:S:1:pos:R:3:initial_magmoms:R:1 pbc="T T T"
Si      -2.08541322       0.77884445      -0.70517096       0.00000000
Si       0.80514954      -1.72258998      -1.40406945       0.00000000
Si       1.73941362       1.62685298      -0.45251428       0.00000000
Si      -1.43143488      -0.68415231       2.10910256       0.00000000
Si       2.41875549      -2.87624778      -0.02726114       0.00000000
Si      -0.93232557      -3.37400502      -1.40182928       0.00000000
Si       3.45634704      -1.15778422       1.19911115       0.00000000
Si      -2.04283116       1.36461656      -2.94861478       0.00000000
Si       3.83134284       0.37517825      -0.59726371       0.00000000
Si       1.19855304      -0.73932002      -3.65330324       0.00000000
