10
Lattice="16.28999089631971 0.0 0.0 0.0 16.28999089631971 0.0 0.0 0.0 34.46413024517268" Properties=species:S:1:pos:R:3:initial_magmoms:R:1 pbc="T T T"
Si      -1.35317772       1.35583299      -1.35905927       0.00000000
Si      -1.35609363      -1.35897696       1.35685357       0.00000000
Si       1.35889551       1.35646830       1.35706035       0.00000000
Si       1.35928647      -1.36164852      -1.36322943       0.00000000
Si      -2.71402803       2.71324611       0.00006893       0.00000000
Si       0.00074934       2.71437012       2.71436195       0.00000000
Si      -2.71406061      -0.00084708       2.71491338       0.00000000
Si       2.71691136       2.71277370       0.00055143       0.00000000
Si      -0.00969255       2.70225036      -2.72805456       0.00000000
Si       2.71614573      -0.00143352       2.71443088       0.00000000
