10
Lattice="16.28999089631971 0.0 0.0 0.0 16.28999089631971 0.0 0.0 0.0 34.46413024517268" Properties=species:S:1:pos:R:3:initial_magmoms:R:1 pbc="T T T"
Si       1.35376416       1.35065277       1.38089231       0.00000000
Si      -1.36485276      -1.36311462       1.37885893       0.00000000
Si       1.36979352      -1.41211494      -1.38406646       0.00000000
Si      -1.34897653       1.40890581      -1.44520241       0.00000000
Si       2.71787247       2.69374698      -0.00356704       0.00000000
Si      -2.73008087      -2.70011637       0.00402541       0.00000000
Si      -2.73791960       2.70528030      -0.00352913       0.00000000
Si      -0.00483813       2.70857088       2.73871087       0.00000000
Si       2.70948312      -0.00566892       2.73988265       0.00000000
Si       2.72696229      -2.73124656       0.01211415       0.00000000
