10
Lattice="16.28999089631971 0.0 0.0 0.0 16.28999089631971 0.0 0.0 0.0 34.46413024517268" Properties=species:S:1:pos:R:3:initial_magmoms:R:1 pbc="T T T"
Si       0.52370721      -2.07462924      -0.96816689       0.00000000
Si      -1.96371063       1.24110252      -0.58161699       0.00000000
Si       1.98008208       1.22155452      -0.81593874       0.00000000
Si      -0.38612187      -0.75632841       2.36124228       0.00000000
Si      -0.91634508       3.22584354       0.30290541       0.00000000
Si       2.39291955      -2.39114394       0.52895577       0.00000000
Si       0.44426088       1.18224675       3.43566214       0.00000000
Si       1.16931249       3.46136436      -0.83137868       0.00000000
Si       0.92295882      -2.71977840       2.41052601       0.00000000
Si      -3.75709302       0.20491191       0.71316665       0.00000000
