10
Lattice="16.28999089631971 0.0 0.0 0.0 16.28999089631971 0.0 0.0 0.0 34.46413024517268" Properties=species:S:1:pos:R:3:initial_magmoms:R:1 pbc="T T T"
Si       0.35360703       0.10355553      -2.31516371       0.00000000
Si      -0.10614564       2.17326519       0.95314052       0.00000000
Si       1.89543924      -1.35101115       0.52885237       0.00000000
Si      -2.12072994      -1.10247462       0.47022886       0.00000000
Si      -2.44369548       2.35362807       0.72950265       0.00000000
Si       0.88598052      -3.45206277       0.72264429       0.00000000
Si      -1.35277047      -3.17193993       1.25018702       0.00000000
Si      -1.00743876       1.86507468      -3.02970892       0.00000000
Si      -2.88864054       1.91381436      -1.57349521       0.00000000
Si      -3.28152276       0.48149982       1.87591812       0.00000000
