10
Lattice="16.28999089631971 0.0 0.0 0.0 16.28999089631971 0.0 0.0 0.0 34.46413024517268" Properties=species:S:1:pos:R:3:initial_magmoms:R:1 pbc="T T T"
Si       2.23875099      -0.28012284      -0.52754274       0.00000000
Si      -0.76795947       2.06946531      -0.77995817       0.00000000
Si       0.04302189       0.19538226       2.35927782       0.00000000
Si      -0.59222295      -2.20695291      -0.72588392       0.00000000
Si      -1.50503310      -1.56682107       2.73572972       0.00000000
Si       2.94622569      -1.61595171       1.31332535       0.00000000
Si      -0.55786734      -3.29122508       1.37219011       0.00000000
Si       1.35277047       3.17193993      -1.25018702       0.00000000
Si      -2.43680481       1.47432645      -2.35414266       0.00000000
Si       3.24820971       1.82092878      -0.72133465       0.00000000
