10
Lattice="16.28999089631971 0.0 0.0 0.0 16.28999089631971 0.0 0.0 0.0 34.46413024517268" Properties=species:S:1:pos:R:3:initial_magmoms:R:1 pbc="T T T"
Si      -1.47913200       1.67671341      -0.64616834       0.00000000
Si       2.05620525       1.20427083      -0.16208490       0.00000000
Si       0.06910218      -2.06306334      -1.20765826       0.00000000
Si      -0.24873201      -0.71970849       2.29472647       0.00000000
Si       2.28579651      -2.53188954      -0.48398005       0.00000000
Si       3.60831645      -0.56762505      -0.33940294       0.00000000
Si      -3.55058469       1.10579778       0.39926717       0.00000000
Si      -1.90267200       1.39499415      -2.94120498       0.00000000
Si      -1.38911346       1.37801997       3.24111201       0.00000000
Si       2.34139428       2.31326145       1.89008289       0.00000000
