10
Lattice="16.28999089631971 0.0 0.0 0.0 16.28999089631971 0.0 0.0 0.0 34.46413024517268" Properties=species:S:1:pos:R:3:initial_magmoms:R:1 pbc="T T T"
Si      -1.81190412      -1.54245123      -0.00820247       0.00000000
Si       1.96444368      -0.71726499       1.16402665       0.00000000
Si       0.24873201       0.71970849      -2.29472647       0.00000000
Si      -1.14038145       2.09772846       0.94638555       0.00000000
Si      -3.33870066      -0.51781023      -1.51070153       0.00000000
Si       0.31783419      -1.34335485      -3.50238473       0.00000000
Si       1.18364769      -0.92885580       3.48977085       0.00000000
Si       3.26419020       1.49711616       1.26018163       0.00000000
Si       0.41344020       3.84002541       0.03708342       0.00000000
Si       2.55202398      -2.84332176      -0.62983233       0.00000000
