10
Lattice="16.28999089631971 0.0 0.0 0.0 16.28999089631971 0.0 0.0 0.0 34.46413024517268" Properties=species:S:1:pos:R:3:initial_magmoms:R:1 pbc="T T T"
Si      -1.35391077      -1.36313091       1.37060132       0.00000000
Si       1.36327752       1.35250983       1.37773539       0.00000000
Si      -1.38148974       1.32388830      -1.41149303       0.00000000
Si       1.30017006      -1.44409221      -1.43596257       0.00000000
Si       2.69788464       2.68964190       0.00697554       0.00000000
Si      -2.52359793      -0.21551670      -2.86205948       0.00000000
Si       2.70487305      -2.73070899       0.00484566       0.00000000
Si       0.00003258       2.70891297       2.73259004       0.00000000
Si      -2.70682785      -2.73465117      -0.01030823       0.00000000
Si       2.71363707      -0.00355122       2.73327932       0.00000000
