10
Lattice="16.28999089631971 0.0 0.0 0.0 16.28999089631971 0.0 0.0 0.0 34.46413024517268" Properties=species:S:1:pos:R:3:initial_magmoms:R:1 pbc="T T T"
Si       1.26600993      -1.33586145      -1.45921209       0.00000000
Si       1.95494661       0.65805084       1.23636690       0.00000000
Si      -1.44399447       1.37204154      -1.42833221       0.00000000
Si      -0.84149253      -1.71924660       1.59551780       0.00000000
Si      -0.64977552      -0.14718015       3.44210693       0.00000000
Si       2.56474647      -2.67245595      -0.02381473       0.00000000
Si       2.62659960       2.63132370      -0.01499191       0.00000000
Si       0.87278562      -3.43060884       1.47823630       0.00000000
Si       2.62788651       0.01682757      -2.80713944       0.00000000
Si      -2.75294484      -2.70303228      -0.01213138       0.00000000
