10
Lattice="16.28999089631971 0.0 0.0 0.0 16.28999089631971 0.0 0.0 0.0 34.46413024517268" Properties=species:S:1:pos:R:3:initial_magmoms:R:1 pbc="T T T"
Si       1.36104579      -1.76151915       0.71454521       0.00000000
Si       1.37212299       1.86450453       0.44606949       0.00000000
Si      -1.88120178       0.04873968       1.45621371       0.00000000
Si       0.00043983       0.28207764      -2.41821151       0.00000000
Si      -2.51905302       2.16512019       0.71606163       0.00000000
Si       3.08612421       1.10801322      -0.95334730       0.00000000
Si       3.53804139      -0.96653457       0.16187811       0.00000000
Si       1.00743876      -1.86507468       3.02970892       0.00000000
Si       0.53066304      -3.70009431      -0.35987465       0.00000000
Si      -1.04692572      -1.70266338      -3.30273391       0.00000000
