10
Lattice="16.28999089631971 0.0 0.0 0.0 16.28999089631971 0.0 0.0 0.0 34.46413024517268" Properties=species:S:1:pos:R:3:initial_magmoms:R:1 pbc="T T T"
Si      -2.33754984       0.18036288      -0.22363787       0.00000000
Si       1.14587118      -0.09990657       2.07436269       0.00000000
Si       0.10614564      -2.17326519      -0.95314052       0.00000000
Si       0.90134199       1.86924492      -1.17222912       0.00000000
Si      -3.17537712      -1.69176537       0.92277760       0.00000000
Si      -2.78249490      -0.25945083      -2.52663573       0.00000000
Si       3.39838722      -0.65329416       1.50870261       0.00000000
Si      -2.01458430      -3.27573981      -0.48291166       0.00000000
Si       0.47082987       1.55631402      -3.53677995       0.00000000
Si       0.45975267      -2.06970966      -3.26830423       0.00000000
