10
Lattice="16.28999089631971 0.0 0.0 0.0 16.28999089631971 0.0 0.0 0.0 34.46413024517268" Properties=species:S:1:pos:R:3:initial_magmoms:R:1 pbc="T T T"
Si      -1.35754670      -1.35532800       1.35675017       0.00000000
Si       1.35785295      -1.35739683      -1.35740499       0.00000000
Si      -1.35769494       1.35799956      -1.35747392       0.00000000
Si       1.35891180       1.35870003       1.35664678       0.00000000
Si      -2.71271651      -0.00138465       2.71329356       0.00000000
Si      -2.71481478       0.00127062      -2.71332803       0.00000000
Si       0.00060273      -2.71313208      -2.71529248       0.00000000
Si       2.71432125       0.00040725      -2.71443088       0.00000000
Si       2.71458189      -2.71422351       0.00055143       0.00000000
Si      -2.71464176      -2.71456560      -0.00006893       0.00000000
