10
Lattice="16.28999089631971 0.0 0.0 0.0 16.28999089631971 0.0 0.0 0.0 34.46413024517268" Properties=species:S:1:pos:R:3:initial_magmoms:R:1 pbc="T T T"
Si       1.45666809      -1.22044680       1.41598026       0.00000000
Si      -1.21163391      -1.35475785      -1.54148977       0.00000000
Si      -1.24387182       1.50640677       1.41291640       0.00000000
Si       1.78691526       1.05577119      -1.23365250       0.00000000
Si       0.27126108       2.15101209      -2.85664172       0.00000000
Si      -2.62270629      -2.58620040      -0.00248831       0.00000000
Si       0.12206097      -2.55757887       2.78674011       0.00000000
Si      -2.59827129       0.15796413       2.78270781       0.00000000
Si      -2.53630413       2.86436422      -0.03065931       0.00000000
Si       2.72060919      -2.71511946       0.04094341       0.00000000
