10
Lattice="16.28999089631971 0.0 0.0 0.0 16.28999089631971 0.0 0.0 0.0 34.46413024517268" Properties=species:S:1:pos:R:3:initial_magmoms:R:1 pbc="T T T"
Si       1.34361368       1.34467434       1.35388965       0.00000000
Si       1.35516981      -1.35394335      -1.35654339       0.00000000
Si      -1.35992100       1.35755973      -1.35626768       0.00000000
Si      -1.36010019      -1.35624024       1.37429243       0.00000000
Si       2.65993691      -0.04582377       2.70357467       0.00000000
Si       2.71271651       0.00138465      -2.71329356       0.00000000
Si      -0.00192525      -2.71318095      -2.71336249       0.00000000
Si       2.71232555      -2.71477737       0.00227463       0.00000000
Si       2.71177169       2.71552671       0.00558319       0.00000000
Si      -2.71708977      -2.71265967       0.00310177       0.00000000
