10
Lattice="16.28999089631971 0.0 0.0 0.0 16.28999089631971 0.0 0.0 0.0 34.46413024517268" Properties=species:S:1:pos:R:3:initial_magmoms:R:1 pbc="T T T"
Si      -0.15356583       0.42629301       2.25953857       0.00000000
Si       1.13404464       1.63388700      -1.23109388       0.00000000
Si      -1.62202788      -1.26506511      -1.26273197       0.00000000
Si      -0.84921399      -1.84753035       2.55327652       0.00000000
Si       2.44213164       0.22887450      -2.64116010       0.00000000
Si      -0.25084971      -2.49992367      -2.66432001       0.00000000
Si       1.26387594      -2.94592433       2.12047573       0.00000000
Si       2.60200170       2.91687111       0.36242500       0.00000000
Si      -0.28390212       2.94721938      -2.63678315       0.00000000
Si      -2.98647828       0.24117345      -2.62137768       0.00000000
