10
Lattice="16.28999089631971 0.0 0.0 0.0 16.28999089631971 0.0 0.0 0.0 34.46413024517268" Properties=species:S:1:pos:R:3:initial_magmoms:R:1 pbc="T T T"
Si      -1.35593073       1.35922131      -1.36057569       0.00000000
Si       1.35985662      -1.35544203      -1.36222997       0.00000000
Si      -1.36815800      -1.37085237       1.34830646       0.00000000
Si       1.38409614       1.36155078       1.36963977       0.00000000
Si      -2.71333888       2.71342530       0.00093053       0.00000000
Si      -2.71177169      -2.71552671      -0.00558319       0.00000000
Si       2.72121192       2.70940167      -0.00454927       0.00000000
Si       2.71632492      -2.71593396      -0.00306731       0.00000000
Si      -2.71383088       0.00115659      -2.71870443       0.00000000
Si       0.00094482      -2.71414206      -2.71887675       0.00000000
