10
Lattice="16.28999089631971 0.0 0.0 0.0 16.28999089631971 0.0 0.0 0.0 34.46413024517268" Properties=species:S:1:pos:R:3:initial_magmoms:R:1 pbc="T T T"
Si      -0.07387515       2.14541255      -0.83003458       0.00000000
Si       1.96571660      -0.73637709      -0.95934407       0.00000000
Si      -2.07300024      -1.14414837      -0.34188436       0.00000000
Si       0.36751869      -0.05057915       2.37878453       0.00000000
Si      -2.26343034       2.46109646       0.04218412       0.00000000
Si      -1.45772694      -3.07423644       0.88007652       0.00000000
Si      -3.47330493       0.40629052       0.75990003       0.00000000
Si       2.33928377      -2.72269824       0.18190178       0.00000000
Si      -0.54239184      -2.18651289       2.85373497       0.00000000
Si       1.79370072       3.27952235       0.10301334       0.00000000
