10
Lattice="16.28999089631971 0.0 0.0 0.0 16.28999089631971 0.0 0.0 0.0 34.46413024517268" Properties=species:S:1:pos:R:3:initial_magmoms:R:1 pbc="T T T"
Si       0.83616570       1.69293825      -1.40995045       0.00000000
Si       1.35876519      -1.33116993       1.40909777       0.00000000
Si      -1.38007251       1.35547461       1.41273718       0.00000000
Si      -0.76999572      -1.91723526      -1.29976857       0.00000000
Si       2.79915957      -2.47880043      -0.12368149       0.00000000
Si       2.70488934       2.65264731      -0.21311596       0.00000000
Si       1.31054679       0.50873670      -3.52935779       0.00000000
Si      -2.78477550       2.64209139      -0.02807105       0.00000000
Si       0.93841803      -3.57106122      -1.06201449       0.00000000
Si      -2.67626781      -2.80525203      -0.10148313       0.00000000
