10
Lattice="16.28999089631971 0.0 0.0 0.0 16.28999089631971 0.0 0.0 0.0 34.46413024517268" Properties=species:S:1:pos:R:3:initial_magmoms:R:1 pbc="T T T"
Si      -0.28155636       1.91614383       1.28709813       0.00000000
Si       0.66226995       1.08486513      -2.02552699       0.00000000
Si      -2.23947752      -0.71905689      -0.46306031       0.00000000
Si       1.69609851      -1.31225724       1.11401917       0.00000000
Si       2.78073558       1.56691881      -0.79212401       0.00000000
Si      -0.19935702       0.55446273       3.26403067       0.00000000
Si      -1.25902641      -2.42748693      -1.94781034       0.00000000
Si      -0.14323797      -0.77906925      -3.34123037       0.00000000
Si       1.58716728       3.14784702       0.49590465       0.00000000
Si      -3.04126874      -0.79705341       1.83652560       0.00000000
