10
Lattice="16.28999089631971 0.0 0.0 0.0 16.28999089631971 0.0 0.0 0.0 34.46413024517268" Properties=species:S:1:pos:R:3:initial_magmoms:R:1 pbc="T T T"
Si       1.37578824       1.33768593       1.35457893       0.00000000
Si       1.35679410      -1.35856971      -1.36092034       0.00000000
Si      -1.35755973       1.35889551      -1.36074801       0.00000000
Si      -1.36941885      -1.35402480       1.37401671       0.00000000
Si       0.05809014       2.71875213       2.64981060       0.00000000
Si       2.71514790       2.71282257       0.00186106       0.00000000
Si      -2.71676475       2.71432125      -0.00206785       0.00000000
Si      -2.71396287      -2.71790505      -0.00110285       0.00000000
Si       2.71465591       0.00055386      -2.71777390       0.00000000
Si       2.71671510      -2.71612944      -0.00465266       0.00000000
