10
Lattice="16.28999089631971 0.0 0.0 0.0 16.28999089631971 0.0 0.0 0.0 34.46413024517268" Properties=species:S:1:pos:R:3:initial_magmoms:R:1 pbc="T T T"
Si       1.31769810      -1.38106620      -1.29523167       0.00000000
Si       1.61106471       1.02227895       1.34592843       0.00000000
Si      -1.60355502      -1.04601348       1.34575611       0.00000000
Si      -1.40181966       1.36145304      -1.29795433       0.00000000
Si       0.44126352       1.21424031       3.37242042       0.00000000
Si       2.65705776      -0.00592956      -2.64794953       0.00000000
Si      -3.44779479       0.63679239       1.39162789       0.00000000
Si      -0.05877432       2.71208952      -2.65584183       0.00000000
Si      -0.05809014      -2.71875213      -2.64981060       0.00000000
Si      -2.77614180       2.61006525       0.14026909       0.00000000
