10
Lattice="16.28999089631971 0.0 0.0 0.0 16.28999089631971 0.0 0.0 0.0 34.46413024517268" Properties=species:S:1:pos:R:3:initial_magmoms:R:1 pbc="T T T"
Si      -0.14625162       1.44399447       1.80412930       0.00000000
Si      -1.80046854       0.10182879      -1.48392289       0.00000000
Si      -0.94117104      -2.16482697       0.08340324       0.00000000
Si       2.25454319       0.16272081      -0.73908369       0.00000000
Si       3.29817833      -0.08881308       1.31639265       0.00000000
Si       2.16788039       1.72724499       2.29844859       0.00000000
Si      -0.83386881      -0.62898948      -3.46185489       0.00000000
Si      -2.43563193      -2.14772247       1.91276030       0.00000000
Si       2.66159771      -1.50350184      -2.30124019       0.00000000
Si       0.64520685      -3.91681647       0.02495204       0.00000000
