10
Lattice="16.28999089631971 0.0 0.0 0.0 16.28999089631971 0.0 0.0 0.0 34.46413024517268" Properties=species:S:1:pos:R:3:initial_magmoms:R:1 pbc="T T T"
Si       2.30861880      -0.29278017      -0.34519292       0.00000000
Si      -0.91215855      -2.14566993       0.46092354       0.00000000
Si      -0.88120755       0.65813229      -2.13615691       0.00000000
Si      -0.83048049       1.75580136       1.93261165       0.00000000
Si      -3.08884464      -1.33861446       0.90265054       0.00000000
Si      -0.83497653      -1.47207843      -3.21877924       0.00000000
Si       3.16369949       1.88854857      -0.05131712       0.00000000
Si       1.43979165       3.30905286      -0.87121924       0.00000000
Si      -2.89417914       0.55612431       2.26746532       0.00000000
Si       0.52445655       2.42132931      -2.84487769       0.00000000
