10
Lattice="16.28999089631971 0.0 0.0 0.0 16.28999089631971 0.0 0.0 0.0 34.46413024517268" Properties=species:S:1:pos:R:3:initial_magmoms:R:1 pbc="T T T"
Si      -1.18333818       1.43328091       1.42741547       0.00000000
Si       0.88369992       1.84991751      -1.24330143       0.00000000
Si       1.53193835      -1.29314907       1.38348057       0.00000000
Si      -1.75824486      -1.02576501      -1.36071497       0.00000000
Si       1.82287936       0.81254520      -3.11221751       0.00000000
Si      -2.53356741       2.75706362       0.03664228       0.00000000
Si      -2.54541024       0.08151516       2.77906495       0.00000000
Si       0.17226675      -2.63779083       2.77813441       0.00000000
Si      -2.65551435      -2.79591786       0.03850679       0.00000000
Si       2.78757805       2.74149364       0.05487727       0.00000000
