10
Lattice="16.28999089631971 0.0 0.0 0.0 16.28999089631971 0.0 0.0 0.0 34.46413024517268" Properties=species:S:1:pos:R:3:initial_magmoms:R:1 pbc="T T T"
Si       1.35711990      -1.35591444       1.35530268       0.00000000
Si      -1.35742941      -1.35620766      -1.35675017       0.00000000
Si       1.35742941       1.35893486      -1.35685357       0.00000000
Si      -1.35547461       1.35821533       1.36157515       0.00000000
Si       0.02143764       2.70206695       2.70781376       0.00000000
Si       0.01407456      -2.70655092       2.71319017       0.00000000
Si       2.71287144      -2.71244790      -0.00041357       0.00000000
Si      -0.00057015      -2.71366965      -2.71384499       0.00000000
Si       2.71461447       0.00193851      -2.71401731       0.00000000
Si      -2.71521720       0.00167787      -2.71394838       0.00000000
