10
Lattice="16.28999089631971 0.0 0.0 0.0 16.28999089631971 0.0 0.0 0.0 34.46413024517268" Properties=species:S:1:pos:R:3:initial_magmoms:R:1 pbc="T T T"
Si       0.83132757       0.07817571      -2.17747943       0.00000000
Si      -1.32742323      -1.92336030       0.00382552       0.00000000
Si      -1.76884965       1.42433637       0.66529594       0.00000000
Si       1.63429425      -0.06641433       1.73444279       0.00000000
Si       0.00143352       0.16733088       3.50996684       0.00000000
Si      -2.59463862      -1.59493761      -1.97128042       0.00000000
Si      -0.58836222      -1.27711971      -3.41343276       0.00000000
Si      -1.07530290       2.20056627       2.78894237       0.00000000
Si       2.68177383      -1.38495951      -2.16307342       0.00000000
Si      -2.94803388      -1.77152121       1.64232012       0.00000000
