10
Lattice="16.28999089631971 0.0 0.0 0.0 16.28999089631971 0.0 0.0 0.0 34.46413024517268" Properties=species:S:1:pos:R:3:initial_magmoms:R:1 pbc="T T T"
Si       1.71071064      -0.45587565      -1.53220716       0.00000000
Si       1.03759155       1.71846356       1.22637230       0.00000000
Si      -1.61360595       1.15365780      -1.37680831       0.00000000
Si      -0.55956150      -2.00912715       1.27162372       0.00000000
Si       1.41258735       3.25142603      -0.57000257       0.00000000
Si      -3.35108106      -0.49775724      -1.37456814       0.00000000
Si       2.62062117       1.68005809      -2.00715760       0.00000000
Si       3.07755145       0.93442698       1.88322452       0.00000000
Si      -2.41875549       2.87624778       0.02726114       0.00000000
Si      -0.50357277      -0.90388323       3.63472706       0.00000000
