10
Lattice="16.28999089631971 0.0 0.0 0.0 16.28999089631971 0.0 0.0 0.0 34.46413024517268" Properties=species:S:1:pos:R:3:initial_magmoms:R:1 pbc="T T T"
Si      -1.10485296       1.38689802       1.52438380       0.00000000
Si       1.33711578       1.34785089      -1.37418903       0.00000000
Si      -1.38409614      -1.36155078      -1.36963977       0.00000000
Si       1.37981187      -1.36648665       1.42236991       0.00000000
Si      -2.21037381      -0.49013352       2.49062069       0.00000000
Si      -0.63042300      -2.25896688       2.64405509       0.00000000
Si       2.68876224       2.70858717       0.00616908       0.00000000
Si       2.68884369      -0.00182448      -2.73245563       0.00000000
Si       2.69480583      -2.72727180       0.00985675       0.00000000
Si      -2.71818524       2.72049516       0.02519329       0.00000000
