10
Lattice="16.28999089631971 0.0 0.0 0.0 16.28999089631971 0.0 0.0 0.0 34.46413024517268" Properties=species:S:1:pos:R:3:initial_magmoms:R:1 pbc="T T T"
Si       1.92832875      -1.28239767      -0.01992028       0.00000000
Si       0.68035185       2.12503050       0.67367073       0.00000000
Si      -0.03244968       1.07377164      -2.18978313       0.00000000
Si      -1.48493843      -1.76956641       0.79639757       0.00000000
Si      -2.90345534       1.03579965       1.65910416       0.00000000
Si      -1.33694378       2.77650018       1.70573415       0.00000000
Si       1.54197882       2.96881992      -1.35368286       0.00000000
Si      -3.09271256      -1.79442495      -0.92460420       0.00000000
Si       1.29220425      -0.34484301      -3.48597979       0.00000000
Si      -2.45153816      -1.03874814       2.77432957       0.00000000
