10
Lattice="16.28999089631971 0.0 0.0 0.0 16.28999089631971 0.0 0.0 0.0 34.46413024517268" Properties=species:S:1:pos:R:3:initial_magmoms:R:1 pbc="T T T"
Si       1.52187696       0.71032545       1.59451834       0.00000000
Si      -0.68035185      -2.12503050      -0.67367073       0.00000000
Si      -2.01729563       0.65146968       1.03206342       0.00000000
Si       0.86162697       0.84378942      -2.02735359       0.00000000
Si      -2.07277937       2.20705065      -0.73084675       0.00000000
Si      -0.71280153      -1.05125886      -2.86345386       0.00000000
Si       2.46145158      -1.28907657       2.26863711       0.00000000
Si       1.76625954       3.00737835      -1.15013760       0.00000000
Si       1.24797690      -3.40742817      -0.69359101       0.00000000
Si      -3.58380719      -1.08923085       0.98543343       0.00000000
