10
Lattice="16.28999089631971 0.0 0.0 0.0 16.28999089631971 0.0 0.0 0.0 34.46413024517268" Properties=species:S:1:pos:R:3:initial_magmoms:R:1 pbc="T T T"
Si       2.30114821      -0.27634356      -0.40695268       0.00000000
Si      -0.49459765       0.19471437       2.30155037       0.00000000
Si      -1.38567694      -1.53797148      -1.13769604       0.00000000
Si      -0.47511481       1.94639436      -1.31515195       0.00000000
Si       1.82103304      -0.53398620      -2.68499850       0.00000000
Si      -0.49309897      -0.81723672      -3.17931779       0.00000000
Si       0.36048304       2.37604311       2.59542617       0.00000000
Si       2.69523589      -2.11949190       0.97354330       0.00000000
Si      -2.27875990       2.90882385      -0.19813440       0.00000000
Si       1.51825081       3.26036205      -0.89630914       0.00000000
