10
Lattice="16.28999089631971 0.0 0.0 0.0 16.28999089631971 0.0 0.0 0.0 34.46413024517268" Properties=species:S:1:pos:R:3:initial_magmoms:R:1 pbc="T T T"
Si      -1.35586231       1.35347094      -1.36143730       0.00000000
Si      -1.33311170      -1.35122292       1.39535002       0.00000000
Si       1.36091547      -1.35804843      -1.36185087       0.00000000
Si       1.33973847       1.37313297       1.38094401       0.00000000
Si       2.52952749      -0.14763627       2.70236843       0.00000000
Si      -2.71033739       2.71305063      -0.00379106       0.00000000
Si      -2.71307161      -0.00135207      -2.71846318       0.00000000
Si       0.00112401       2.71337244      -2.71822194       0.00000000
Si      -2.71236148      -2.71984356       0.00144749       0.00000000
Si       2.71746522       2.71544688       0.00199892       0.00000000
