10
Lattice="16.28999089631971 0.0 0.0 0.0 16.28999089631971 0.0 0.0 0.0 34.46413024517268" Properties=species:S:1:pos:R:3:initial_magmoms:R:1 pbc="T T T"
Si      -1.11077798      -1.77837930       1.14900028       0.00000000
Si      -1.42574513       1.25110458      -1.48154486       0.00000000
Si       1.31446486      -1.43796717      -1.45097516       0.00000000
Si       0.62908429       1.98376362       1.52286737       0.00000000
Si       2.56397628       2.79187861       0.15798366       0.00000000
Si      -2.84828567       2.53351854      -0.11548936       0.00000000
Si      -0.06276083       2.62630638      -2.85011624       0.00000000
Si       2.64757656      -0.08674425      -2.84632518       0.00000000
Si      -1.24463291       3.46374989       1.26314554       0.00000000
Si      -2.72184269      -2.80065825      -0.19692815       0.00000000
