10
Lattice="16.28999089631971 0.0 0.0 0.0 16.28999089631971 0.0 0.0 0.0 34.46413024517268" Properties=species:S:1:pos:R:3:initial_magmoms:R:1 pbc="T T T"
Si      -2.18340734       0.87794955       0.11035421       0.00000000
Si       1.35127179      -0.78130098       1.95218728       0.00000000
Si      -0.90463257      -2.16358893      -0.87721600       0.00000000
Si       1.67739759       1.38895056      -1.24394901       0.00000000
Si      -0.24438258      -2.29705290       2.74465594       0.00000000
Si      -2.34759914       1.15510761      -2.50109779       0.00000000
Si      -1.76625954      -3.00737835       1.15013760       0.00000000
Si       1.02037302      -3.20546475      -1.73602814       0.00000000
Si       3.43503972      -1.26239355       0.97040706       0.00000000
Si       3.09337326      -2.00298582      -1.26748803       0.00000000
