10
Lattice="16.28999089631971 0.0 0.0 0.0 16.28999089631971 0.0 0.0 0.0 34.46413024517268" Properties=species:S:1:pos:R:3:initial_magmoms:R:1 pbc="T T T"
Si      -1.96571660       0.73637709       0.95934407       0.00000000
Si       0.37356717      -1.98632115       1.14124585       0.00000000
Si       1.88239584       1.29094733       0.67890928       0.00000000
Si       0.23109483      -0.19088622      -2.40228908       0.00000000
Si       3.33816798      -0.12753441      -0.46033764       0.00000000
Si       2.45153586      -2.34576000       0.15357225       0.00000000
Si      -2.03959175       2.88178964       0.12930949       0.00000000
Si       2.41584447       0.62196639      -2.55058831       0.00000000
Si      -1.61979845      -3.30028884       0.72240304       0.00000000
Si      -1.59819791       0.68579794       3.33812859       0.00000000
