10
Lattice="10.86 0.0 0.0 0.0 10.86 0.0 0.0 0.0 10.86" Properties=species:S:1:pos:R:3:initial_magmoms:R:1 pbc="T T T"
Si      -1.33898370      -1.45689072       1.23106788       0.00000000
Si      -1.33898370       1.25810928      -1.48393212       0.00000000
Si       0.77020206       2.20917378       0.39350124       0.00000000
Si       1.37601630      -1.45689072      -1.48393212       0.00000000
Si      -0.10024866       2.45433828       2.51667468       0.00000000
Si       2.46486162       0.14541540       2.50664004       0.00000000
Si      -0.00504990       2.58194328      -2.65404282       0.00000000
Si      -2.69648370      -0.09939072       2.58856788       0.00000000
Si      -2.69648370       2.61560928      -0.12643212       0.00000000
Si       0.01851630      -2.81439072       2.58856788       0.00000000
