10
Lattice="16.28999089631971 0.0 0.0 0.0 16.28999089631971 0.0 0.0 0.0 34.49183129400761" Properties=species:S:1:pos:R:3:initial_magmoms:R:1 pbc="T T T"
Si      -1.35949824      -1.35122618       1.39273954       0.00000000
Si       1.35332433       1.36847403       1.39142885       0.00000000
Si      -1.46860866       1.19575116      -1.48457409       0.00000000
Si       1.48566429      -1.34519073      -1.50750427       0.00000000
Si       0.05460408       2.44442853      -2.85508505       0.00000000
Si       2.70844056      -2.69763037       0.02507558       0.00000000
Si      -2.69879688      -2.70800791       0.00860572       0.00000000
Si       2.69309538       2.73336426       0.01739079       0.00000000
Si      -2.71669959       2.71933857      -0.00201087       0.00000000
Si      -0.00382815      -2.70474125       2.75106310       0.00000000
