10
Lattice="16.28999089631971 0.0 0.0 0.0 16.28999089631971 0.0 0.0 0.0 34.49183129400761" Properties=species:S:1:pos:R:3:initial_magmoms:R:1 pbc="T T T"
Si       2.24764533       0.43953678      -0.32170549       0.00000000
Si      -0.91267983       0.86892489      -2.00539068       0.00000000
Si      -0.25039359       1.30386789       1.97172664       0.00000000
Si      -0.41392890      -2.37725576       0.00169010       0.00000000
Si      -3.17777175       0.76755222      -1.22021820       0.00000000
Si       3.02518332       0.36082350       1.88539354       0.00000000
Si       1.23202899       0.15268617       3.42990411       0.00000000
Si      -2.68356573      -2.52083582       0.61509317       0.00000000
Si      -2.43929718       0.85051719       2.71633671       0.00000000
Si       3.24978984      -1.31318414      -1.60925178       0.00000000
