10
Lattice="16.28999089631971 0.0 0.0 0.0 16.28999089631971 0.0 0.0 0.0 34.49183129400761" Properties=species:S:1:pos:R:3:initial_magmoms:R:1 pbc="T T T"
Si      -0.43618104       0.73171422      -2.27218515       0.00000000
Si       1.32833547      -1.93862403      -0.68745707       0.00000000
Si       1.11138525       0.71824239       2.10690020       0.00000000
Si      -2.49862536       1.29507129       0.56832222       0.00000000
Si      -2.51333523      -0.98917767       1.37632831       0.00000000
Si       0.64698993      -1.41856578       3.06001351       0.00000000
Si      -2.33448732      -2.62943406      -0.41914497       0.00000000
Si       3.32060247      -1.88825535       0.67386728       0.00000000
Si       3.45678687       0.42995826       1.71258936       0.00000000
Si      -0.05051529      -3.89365478      -0.08153873       0.00000000
