10
Lattice="16.28999089631971 0.0 0.0 0.0 16.28999089631971 0.0 0.0 0.0 34.49183129400761" Properties=species:S:1:pos:R:3:initial_magmoms:R:1 pbc="T T T"
Si       1.27309608       0.20357613      -1.96600099       0.00000000
Si      -2.28366252       0.19898235      -0.53314053       0.00000000
Si       0.38120229      -1.67248453       1.63263725       0.00000000
Si       0.28263150       1.91484063       1.45248632       0.00000000
Si       0.53033724       2.33600229      -2.50110756       0.00000000
Si      -2.96132652       1.67099562       1.17631007       0.00000000
Si      -0.38330370      -0.58984461       3.56066272       0.00000000
Si       3.44632869       0.32558823      -1.09273632       0.00000000
Si      -0.91948905      -3.52498400       0.87647241       0.00000000
Si       2.73904947      -1.77273807       2.04764320       0.00000000
