10
Lattice="16.28999089631971 0.0 0.0 0.0 16.28999089631971 0.0 0.0 0.0 34.49183129400761" Properties=species:S:1:pos:R:3:initial_magmoms:R:1 pbc="T T T"
Si       1.35415512      -1.35265644      -1.35684042       0.00000000
Si      -1.35757602      -1.34524449       1.36756738       0.00000000
Si      -1.35733167       1.36270737      -1.35525379       0.00000000
Si       1.37696112       1.35348723       1.38301973       0.00000000
Si      -0.09585036       2.54684376       2.80253184       0.00000000
Si       2.71019988      -2.71132389       0.00507030       0.00000000
Si      -0.00223173      -2.71093293      -2.71371533       0.00000000
Si       2.71239903       0.00366525      -2.71340490       0.00000000
Si      -2.71832859      -2.70842427       0.00241443       0.00000000
Si      -2.71704168       0.00373041      -2.71350838       0.00000000
