10
Lattice="16.28999089631971 0.0 0.0 0.0 16.28999089631971 0.0 0.0 0.0 34.49183129400761" Properties=species:S:1:pos:R:3:initial_magmoms:R:1 pbc="T T T"
Si       1.84204062       0.78692103      -1.29292702       0.00000000
Si       0.43618104      -0.73171422       2.27218515       0.00000000
Si      -1.08427869      -1.80827145      -1.35421904       0.00000000
Si      -1.89669357       1.64955798       0.18201350       0.00000000
Si      -2.06244432       0.56335707       2.84050737       0.00000000
Si       0.32268861       2.15300043      -2.81612163       0.00000000
Si       1.76451651      -2.67033825       1.58472807       0.00000000
Si      -2.41184853      -0.54573129      -2.83157398       0.00000000
Si      -1.15012287       3.34635696      -1.39660952       0.00000000
Si      -3.68035083       0.82893294      -1.35497786       0.00000000
