10
Lattice="16.28999089631971 0.0 0.0 0.0 16.28999089631971 0.0 0.0 0.0 34.49183129400761" Properties=species:S:1:pos:R:3:initial_magmoms:R:1 pbc="T T T"
Si       1.35127179       1.36270737      -1.36570482       0.00000000
Si      -1.22398173       1.50478875       1.33680065       0.00000000
Si      -1.36814823      -1.34904006      -1.36618771       0.00000000
Si       1.25459064      -1.52024796       1.43358479       0.00000000
Si      -2.33108271      -0.02443500       2.66618556       0.00000000
Si      -2.70864418      -2.70581787       0.00779516       0.00000000
Si      -0.00689067      -2.70438435      -2.72420085       0.00000000
Si       2.70798444       0.00952965      -2.72692571       0.00000000
Si       2.69871543       2.73715983       0.00920932       0.00000000
Si       2.72740212      -2.71360449       0.01407268       0.00000000
