10
Lattice="16.28999089631971 0.0 0.0 0.0 16.28999089631971 0.0 0.0 0.0 34.49183129400761" Properties=species:S:1:pos:R:3:initial_magmoms:R:1 pbc="T T T"
Si       0.38604042       2.31883589      -0.00482886       0.00000000
Si      -2.17639613      -0.35663860       0.82138893       0.00000000
Si       0.14177187      -1.05251712      -2.10607240       0.00000000
Si       1.43622414      -1.14859554       1.50581072       0.00000000
Si      -2.12934246      -2.58068202       1.63788002       0.00000000
Si       2.41140870      -0.90893706      -2.71947547       0.00000000
Si       3.63859956      -0.68884287       0.86312407       0.00000000
Si      -0.90748495       3.27398375      -1.74287321       0.00000000
Si      -2.46395470       0.83332798       2.82215771       0.00000000
Si       2.57494401       2.77218659      -0.74943893       0.00000000
