10
Lattice="16.28999089631971 0.0 0.0 0.0 16.28999089631971 0.0 0.0 0.0 34.49183129400761" Properties=species:S:1:pos:R:3:initial_magmoms:R:1 pbc="T T T"
Si       1.35721764       1.35694448      -1.35804763       0.00000000
Si      -1.35744570      -1.35778779      -1.35777170       0.00000000
Si       1.35681039      -1.35899325       1.35763373       0.00000000
Si      -1.36014984       1.35776076       1.35928934       0.00000000
Si       2.71634121      -0.00182448       2.69829747       0.00000000
Si       2.71407690       2.71362797      -0.00058636       0.00000000
Si       2.71521720      -0.00083079      -2.71495703       0.00000000
Si      -0.00032580       2.71478293      -2.71543992       0.00000000
Si      -2.71463076       2.71574078      -0.00048289       0.00000000
Si       0.00001629      -2.71505430      -2.71540543       0.00000000
