10
Lattice="16.28999089631971 0.0 0.0 0.0 16.28999089631971 0.0 0.0 0.0 34.49183129400761" Properties=species:S:1:pos:R:3:initial_magmoms:R:1 pbc="T T T"
Si       1.23729066       1.94010642      -0.27172680       0.00000000
Si       0.48927015      -1.02628629      -2.07813400       0.00000000
Si       0.75101787      -0.55232874       2.19257796       0.00000000
Si      -2.33665845      -0.18283896       0.48826664       0.00000000
Si      -0.54118638      -2.46403354       2.21617038       0.00000000
Si      -2.36072497      -2.51179420       0.74885257       0.00000000
Si      -0.10502163       3.42762777       0.99360674       0.00000000
Si      -0.80425522      -0.07113843      -3.81617835       0.00000000
Si      -3.63995882       0.77915070      -1.18479507       0.00000000
Si       3.56501763       1.58469120       0.22461093       0.00000000
