10
Lattice="16.28999089631971 0.0 0.0 0.0 16.28999089631971 0.0 0.0 0.0 34.49183129400761" Properties=species:S:1:pos:R:3:initial_magmoms:R:1 pbc="T T T"
Si       0.89611290       1.30398192       1.76889873       0.00000000
Si      -1.64903670       1.20485727      -1.39436755       0.00000000
Si       1.89576504      -1.11182508      -1.17265394       0.00000000
Si      -1.58904063      -1.30060500       1.56001608       0.00000000
Si       1.73866428       2.37864951      -1.38277829       0.00000000
Si       2.69298135       2.32171596       0.72177823       0.00000000
Si       2.54622474      -2.76740126       0.32922471       0.00000000
Si      -2.63520072      -2.85857639       0.07043236       0.00000000
Si       2.33474796       0.04152321       3.11963064       0.00000000
Si      -3.02010084       2.48901426       0.21243531       0.00000000
