10
Lattice="16.28999089631971 0.0 0.0 0.0 16.28999089631971 0.0 0.0 0.0 34.49183129400761" Properties=species:S:1:pos:R:3:initial_magmoms:R:1 pbc="T T T"
Si       1.17959148      -1.35062019      -1.53143817       0.00000000
Si      -1.84204062      -0.78692103       1.29292702       0.00000000
Si      -1.51935201       1.36607940      -1.52319461       0.00000000
Si       2.02411395       0.81818154       1.49601503       0.00000000
Si       2.68985367      -2.55932190      -0.11858298       0.00000000
Si       2.53842183       2.71681362      -0.05059954       0.00000000
Si       2.52952749       0.01731627      -2.90307559       0.00000000
Si      -2.92631931      -2.59519248      -0.06129202       0.00000000
Si      -2.99216349       2.55943593      -0.10368250       0.00000000
Si      -0.18611325      -2.69873172      -2.90114404       0.00000000
