10
Lattice="16.28999089631971 0.0 0.0 0.0 16.28999089631971 0.0 0.0 0.0 34.49183129400761" Properties=species:S:1:pos:R:3:initial_magmoms:R:1 pbc="T T T"
Si       2.41157160       0.45613629       0.04511534       0.00000000
Si      -0.35904789      -1.30693041       2.14056425       0.00000000
Si       1.12565529      -2.01085389      -1.13312627       0.00000000
Si      -0.75627954       3.22221087      -0.47174504       0.00000000
Si       2.09934117       2.33302122      -1.30834488       0.00000000
Si       0.99163746       3.13144299       1.07718049       0.00000000
Si      -0.96661602       0.59236956       3.30766499       0.00000000
Si      -3.52691532      -0.15112233       0.46215631       0.00000000
Si      -2.56098348      -2.11061385       1.58759090       0.00000000
Si      -2.83631706       1.47450564       2.09120641       0.00000000
