10
Lattice="16.28999089631971 0.0 0.0 0.0 16.28999089631971 0.0 0.0 0.0 34.49183129400761" Properties=species:S:1:pos:R:3:initial_magmoms:R:1 pbc="T T T"
Si      -0.02713914       2.06811324      -1.07573184       0.00000000
Si       0.09198963      -1.45746630      -1.88456573       0.00000000
Si      -2.29737870       0.27295524       0.73933282       0.00000000
Si       1.78499304      -0.45993186       1.63784552       0.00000000
Si       0.12357594      -1.90417068       2.64466264       0.00000000
Si      -2.19605490      -1.41338556      -2.39901168       0.00000000
Si       0.61455654      -3.44479743      -0.82321700       0.00000000
Si      -3.42611280      -1.45422459      -0.45656863       0.00000000
Si      -0.88982496      -3.49681140       1.04596537       0.00000000
Si       2.02722534       2.41106661      -2.07078723       0.00000000
