10
Lattice="16.28999089631971 0.0 0.0 0.0 16.28999089631971 0.0 0.0 0.0 34.49183129400761" Properties=species:S:1:pos:R:3:initial_magmoms:R:1 pbc="T T T"
Si       1.27221642      -1.43223309       1.33649023       0.00000000
Si      -1.45780839       1.29412729       1.32844673       0.00000000
Si       1.45468071       1.17977067      -1.43492449       0.00000000
Si      -0.90103248      -1.64125008      -1.45444688       0.00000000
Si      -1.77170040      -0.12642669      -2.97850379       0.00000000
Si       2.60110575       2.60384640       0.05952948       0.00000000
Si       2.62039311      -0.07602543       2.69655908       0.00000000
Si       2.35165698      -0.54757206      -2.89730997       0.00000000
Si      -2.68058466       2.64656692      -0.20413312       0.00000000
Si      -0.09589923       2.64226962       2.70280211       0.00000000
