10
Lattice="16.28999089631971 0.0 0.0 0.0 16.28999089631971 0.0 0.0 0.0 34.49183129400761" Properties=species:S:1:pos:R:3:initial_magmoms:R:1 pbc="T T T"
Si      -0.83204433      -2.23415721      -0.01007162       0.00000000
Si       1.91409129       0.55486998       1.34266427       0.00000000
Si      -1.89200205       1.44083421       0.53793490       0.00000000
Si       0.13540248       0.35091918      -2.89917801       0.00000000
Si       1.49266899      -0.68111748       3.31070028       0.00000000
Si       1.95758559       2.89761700       1.19434931       0.00000000
Si      -2.57996133      -2.14338933      -1.55899715       0.00000000
Si      -3.43012014      -0.10078623       1.41754607       0.00000000
Si       0.55198665       2.75371114      -2.52680399       0.00000000
Si       2.13395742      -1.56489885      -2.80166955       0.00000000
