10
Lattice="16.28999089631971 0.0 0.0 0.0 16.28999089631971 0.0 0.0 0.0 34.49183129400761" Properties=species:S:1:pos:R:3:initial_magmoms:R:1 pbc="T T T"
Si      -1.35528733       1.35580041      -1.35501235       0.00000000
Si      -1.35608554      -1.35799956       1.35708186       0.00000000
Si       1.35919912       1.35658233       1.35759924       0.00000000
Si       1.36020259      -1.35804843      -1.36239361       0.00000000
Si      -2.68850980       0.01161477      -2.71410509       0.00000000
Si      -2.71284706       2.71349046       0.00051738       0.00000000
Si      -2.71348237      -0.00115659       2.71481907       0.00000000
Si       0.00177990       2.71445157       2.71437067       0.00000000
Si       2.71612843       2.71352304       0.00027593       0.00000000
Si      -2.71385704      -2.71622718       0.00003449       0.00000000
