10
Lattice="16.28999089631971 0.0 0.0 0.0 16.28999089631971 0.0 0.0 0.0 34.49183129400761" Properties=species:S:1:pos:R:3:initial_magmoms:R:1 pbc="T T T"
Si       1.33740900      -1.34642894       1.38588256       0.00000000
Si       1.35975888       1.34840801      -1.36498049       0.00000000
Si      -1.35418770      -1.36655574      -1.36622220       0.00000000
Si      -1.19731500       1.48947941       1.41896024       0.00000000
Si      -2.44444482       0.00373204       2.73372060       0.00000000
Si       2.38966155       0.26323988       2.84675039       0.00000000
Si      -2.70757719       2.69818112       0.00610506       0.00000000
Si       0.00237834       2.70702659      -2.72437331       0.00000000
Si       2.71810053       2.71351001       0.00500132       0.00000000
Si      -2.71179630      -2.72380596      -0.02604135       0.00000000
