10
Lattice="16.28999089631971 0.0 0.0 0.0 16.28999089631971 0.0 0.0 0.0 34.49183129400761" Properties=species:S:1:pos:R:3:initial_magmoms:R:1 pbc="T T T"
Si       1.33322247       1.34418564       1.35909274       0.00000000
Si      -1.26936567       1.40794470      -1.36857799       0.00000000
Si      -1.38406356      -1.37020077       1.35164250       0.00000000
Si       1.38893427      -1.24248717      -1.48971337       0.00000000
Si      -0.62395587      -2.17807074      -2.39900030       0.00000000
Si      -2.39909346      -0.45957348      -2.38276913       0.00000000
Si       2.69343747       2.68889256      -0.03361231       0.00000000
Si       2.68850980      -0.01161477       2.71410509       0.00000000
Si       2.68082901      -2.72681568      -0.03003895       0.00000000
Si      -0.02433726       2.70187569       2.71462246       0.00000000
