10
Lattice="16.28999089631971 0.0 0.0 0.0 16.28999089631971 0.0 0.0 0.0 34.49183129400761" Properties=species:S:1:pos:R:3:initial_magmoms:R:1 pbc="T T T"
Si      -1.35674523      -1.35581670       1.35656448       0.00000000
Si      -1.35760860       1.35788553      -1.35687491       0.00000000
Si       1.35767376      -1.35770634      -1.35749576       0.00000000
Si       1.35786924       1.35873261       1.35777170       0.00000000
Si      -2.71067229      -0.00226431       2.71602628       0.00000000
Si       2.71194291       0.00226431       2.71550890       0.00000000
Si      -2.71366965       0.00070047      -2.71423271       0.00000000
Si       0.00055386       2.71508688      -2.71350838       0.00000000
Si       2.71381988       0.00011403      -2.71512949       0.00000000
Si      -2.71477737       2.71490769       0.00003449       0.00000000
