10
Lattice="16.28999089631971 0.0 0.0 0.0 16.28999089631971 0.0 0.0 0.0 34.49183129400761" Properties=species:S:1:pos:R:3:initial_magmoms:R:1 pbc="T T T"
Si       1.35755973      -1.35769005      -1.35552973       0.00000000
Si      -1.35764118      -1.35681039       1.35690940       0.00000000
Si       1.35698958       1.35798327       1.35680593       0.00000000
Si      -1.35602847       1.35687555      -1.36073800       0.00000000
Si       0.02433726      -2.70187569      -2.71462246       0.00000000
Si       2.71284706      -2.71349046      -0.00051738       0.00000000
Si       2.71462696       0.00096111       2.71385329       0.00000000
Si       2.71313570       2.71580364      -0.00082780       0.00000000
Si      -0.00063531      -2.71464705       2.71430169       0.00000000
Si      -2.71539639       0.00065160       2.71440516       0.00000000
