10
Lattice="16.28999089631971 0.0 0.0 0.0 16.28999089631971 0.0 0.0 0.0 34.49183129400761" Properties=species:S:1:pos:R:3:initial_magmoms:R:1 pbc="T T T"
Si      -0.97129125      -1.78688268       1.10294591       0.00000000
Si       1.80136449       0.51971616       1.47611324       0.00000000
Si       0.77048442      -1.51145136      -1.72248853       0.00000000
Si      -2.18914794       0.78661152       2.25794001       0.00000000
Si      -2.59299333       1.69890039      -1.68810015       0.00000000
Si       2.55348423      -1.64475243       1.88163392       0.00000000
Si       2.10082048      -2.94818049      -0.26765676       0.00000000
Si       0.41555790      -2.06231400       3.03045399       0.00000000
Si       2.07753214      -0.08936694      -3.10626708       0.00000000
Si      -2.50137837       2.66349645       0.90447980       0.00000000
