10
Lattice="16.28999089631971 0.0 0.0 0.0 16.28999089631971 0.0 0.0 0.0 34.49183129400761" Properties=species:S:1:pos:R:3:initial_magmoms:R:1 pbc="T T T"
Si       0.70442847      -1.25499789       1.84886667       0.00000000
Si      -2.29537503      -0.07424982      -0.53200230       0.00000000
Si       0.42319791       2.30006655       0.57363397       0.00000000
Si       0.97800273      -1.25353179      -1.81171894       0.00000000
Si      -1.90151541       0.74702682      -2.74713793       0.00000000
Si      -1.67376492       2.81124675       1.54930494       0.00000000
Si       2.70801702      -0.12022020       2.40480631       0.00000000
Si       0.93933027      -3.43137447       1.06048644       0.00000000
Si       1.96553511       2.09419353       2.36403695       0.00000000
Si      -3.41363466       1.69440435       0.45808627       0.00000000
