10
Lattice="16.28999089631971 0.0 0.0 0.0 16.28999089631971 0.0 0.0 0.0 34.49183129400761" Properties=species:S:1:pos:R:3:initial_magmoms:R:1 pbc="T T T"
Si      -0.74248191       2.21441373      -0.04076937       0.00000000
Si       1.94928976      -0.25339095      -1.27982012       0.00000000
Si       0.99996509       0.08566911       2.14235782       0.00000000
Si      -2.00358855      -1.13477769      -0.55593965       0.00000000
Si      -2.00937150       2.16583695       1.97262343       0.00000000
Si       0.26018388      -1.98537633       2.99634155       0.00000000
Si       1.32134284       3.36919554      -0.10716618       0.00000000
Si      -2.70801702       0.12022020      -2.40480631       0.00000000
Si       2.59863686       2.01367206      -1.56179099       0.00000000
Si      -2.28481911       2.42028675      -1.83117235       0.00000000
