10
Lattice="16.28999089631971 0.0 0.0 0.0 16.28999089631971 0.0 0.0 0.0 34.49183129400761" Properties=species:S:1:pos:R:3:initial_magmoms:R:1 pbc="T T T"
Si      -1.35713619      -1.35689184      -1.35597812       0.00000000
Si       1.35764065      -1.35677781       1.35784068       0.00000000
Si      -1.35728280       1.35787189       1.35756475       0.00000000
Si       1.35871056       1.35883762      -1.35690940       0.00000000
Si      -2.71280628      -0.00403992      -2.71523297       0.00000000
Si      -2.71407690       0.00050499       2.71419821       0.00000000
Si       0.00017919      -2.71324611       2.71530195       0.00000000
Si       2.71471614       0.00265527       2.71385329       0.00000000
Si      -2.71529865      -2.71409319       0.00065535       0.00000000
Si       0.00182448       2.71557136       2.71399126       0.00000000
