10
Lattice="16.28999089631971 0.0 0.0 0.0 16.28999089631971 0.0 0.0 0.0 34.49183129400761" Properties=species:S:1:pos:R:3:initial_magmoms:R:1 pbc="T T T"
Si      -1.34049596      -1.35677781       1.37398287       0.00000000
Si      -1.35652043       1.35752715      -1.35859950       0.00000000
Si       1.36125756      -1.35534429      -1.35801314       0.00000000
Si       1.36814823       1.34904006       1.36618771       0.00000000
Si      -2.59055374       0.08037486       2.76828143       0.00000000
Si      -2.71188616      -2.71668330       0.00213849       0.00000000
Si      -2.71356661       0.00102627      -2.71685409       0.00000000
Si       0.00154755      -2.71432125      -2.71626772       0.00000000
Si       2.62273887      -0.17120790       2.79977249       0.00000000
Si       2.71942002       2.71174743       0.00048289       0.00000000
