10
Lattice="16.28999089631971 0.0 0.0 0.0 16.28999089631971 0.0 0.0 0.0 34.49183129400761" Properties=species:S:1:pos:R:3:initial_magmoms:R:1 pbc="T T T"
Si       1.25005778      -1.43715267      -1.39429857       0.00000000
Si      -1.30704772      -1.42208442       1.38377855       0.00000000
Si      -1.47695242       1.28316330      -1.38919377       0.00000000
Si       1.62761926       1.24423020       1.26409183       0.00000000
Si      -2.07753214       0.08936694       3.10626708       0.00000000
Si       2.59055374      -0.08037486      -2.76828143       0.00000000
Si      -2.76311308      -2.63969676      -0.05115141       0.00000000
Si      -0.12638110       2.63764422      -2.76917822       0.00000000
Si       2.68306465      -2.76900678       0.07312272       0.00000000
Si       2.73472024       2.77345395      -0.06529307       0.00000000
