10
Lattice="16.28999089631971 0.0 0.0 0.0 16.28999089631971 0.0 0.0 0.0 34.49183129400761" Properties=species:S:1:pos:R:3:initial_magmoms:R:1 pbc="T T T"
Si      -1.26630478       0.95320935      -1.82010046       0.00000000
Si       1.43818871      -1.71664020      -0.91979418       0.00000000
Si       1.37586317       1.47955554       1.40126592       0.00000000
Si      -1.47577740      -1.39792635       1.58496952       0.00000000
Si      -1.40764545      -1.11615822      -3.07098192       0.00000000
Si       0.92663384      -1.46307006      -3.21940035       0.00000000
Si      -1.47992762      -3.43978011       0.10620041       0.00000000
Si       1.23290213       3.56591358       0.22661146       0.00000000
Si       0.86098514      -3.73060548       0.10830441       0.00000000
Si       3.59065157       0.30911904       1.40854370       0.00000000
