10
Lattice="16.28999089631971 0.0 0.0 0.0 16.28999089631971 0.0 0.0 0.0 34.49183129400761" Properties=species:S:1:pos:R:3:initial_magmoms:R:1 pbc="T T T"
Si      -1.31814770       1.23572682      -1.46800765       0.00000000
Si      -1.14265390      -1.54851111       1.44365641       0.00000000
Si       0.70988562       1.93965030       1.23442884       0.00000000
Si       1.53608184      -1.38373776      -1.41382095       0.00000000
Si       2.71536381       1.16742285       2.08448050       0.00000000
Si       2.49696378      -2.68104078       0.45129137       0.00000000
Si       0.34055874      -1.53028260       3.34984853       0.00000000
Si       2.58255144      -1.15992945       2.45730291       0.00000000
Si      -2.53585520      -0.34801956      -2.76779855       0.00000000
Si       0.24456177       2.43906784      -2.88127674       0.00000000
