10
Lattice="16.28999089631971 0.0 0.0 0.0 16.28999089631971 0.0 0.0 0.0 34.529650657227435" Properties=species:S:1:pos:R:3:initial_magmoms:R:1 pbc="T T T"
Si      -1.36076072      -1.34088254       1.37633193       0.00000000
Si      -1.35841821       1.33754437      -1.39162857       0.00000000
Si       1.35509994       1.37109688       1.37329332       0.00000000
Si       1.41845175      -1.29386960      -1.48273165       0.00000000
Si       0.45616887       2.14609689      -2.73772083       0.00000000
Si       2.44600866       0.50570204      -2.78364529       0.00000000
Si      -2.71559906      -2.69917532       0.00986513       0.00000000
Si       2.72556135      -2.70622889      -0.01925029       0.00000000
Si      -0.00384444      -2.70321524       2.73410761       0.00000000
Si      -2.70486606       2.73973707      -0.00183353       0.00000000
