10
Lattice="16.28999089631971 0.0 0.0 0.0 16.28999089631971 0.0 0.0 0.0 34.529650657227435" Properties=species:S:1:pos:R:3:initial_magmoms:R:1 pbc="T T T"
Si       2.28180546       0.22582827      -0.23818566       0.00000000
Si      -1.27754814      -1.23880563      -1.55601052       0.00000000
Si      -0.16250904      -1.13518494       2.06898329       0.00000000
Si      -0.54080519       2.31408639       0.08283668       0.00000000
Si       2.30830929       1.36930482      -2.24121729       0.00000000
Si      -3.37799933       0.46788138       0.90992586       0.00000000
Si       2.74955652       1.36034532       1.78173097       0.00000000
Si      -2.74058792       2.16948495      -0.63268714       0.00000000
Si       1.38041460       0.16242759       3.34454383       0.00000000
Si      -3.24632726      -1.59304797      -0.30727953       0.00000000
