10
Lattice="16.28999089631971 0.0 0.0 0.0 16.28999089631971 0.0 0.0 0.0 34.529650657227435" Properties=species:S:1:pos:R:3:initial_magmoms:R:1 pbc="T T T"
Si      -0.63379503      -0.92046645       2.12844339       0.00000000
Si       2.06099451      -0.95449626      -0.78948637       0.00000000
Si      -1.81969726      -0.77892264      -1.39316859       0.00000000
Si      -0.23100849       2.42877777       0.08186985       0.00000000
Si       1.58850306      -3.31380954      -0.50057663       0.00000000
Si       0.62266896       3.00511797      -2.09622720       0.00000000
Si      -2.72584547      -1.90263942       1.75013632       0.00000000
Si      -3.76206866      -0.75626325      -0.04616617       0.00000000
Si      -2.44187819       0.64378080      -3.13577745       0.00000000
Si      -2.59792010       3.02944383       0.54822757       0.00000000
