10
Lattice="16.28999089631971 0.0 0.0 0.0 16.28999089631971 0.0 0.0 0.0 34.529650657227435" Properties=species:S:1:pos:R:3:initial_magmoms:R:1 pbc="T T T"
Si      -1.68831189      -1.24740838      -1.07055789       0.00000000
Si      -0.55877958       2.28843549       0.40517115       0.00000000
Si       1.73112201      -0.30473703      -1.68670532       0.00000000
Si       0.19282473      -0.75096900       2.41213915       0.00000000
Si      -0.44536860      -3.11488325      -1.83652956       0.00000000
Si       1.48346514       3.06602235       1.39396278       0.00000000
Si      -1.91148489       0.26420751       3.17576281       0.00000000
Si      -2.30047380       0.14789691      -2.95021500       0.00000000
Si       2.48852556       0.06885783       2.82891227       0.00000000
Si      -0.00412137      -3.12384275       2.18641870       0.00000000
