10
Lattice="16.28999089631971 0.0 0.0 0.0 16.28999089631971 0.0 0.0 0.0 34.529650657227435" Properties=species:S:1:pos:R:3:initial_magmoms:R:1 pbc="T T T"
Si      -0.23729643      -2.13775366      -0.91621026       0.00000000
Si      -1.36272366       0.30281318       1.95282548       0.00000000
Si       2.18950632       1.04374591       0.20241293       0.00000000
Si      -1.04954841       1.94719909      -1.19583153       0.00000000
Si       1.33779996       2.74151578       1.79112304       0.00000000
Si       0.29680380       1.30128918       3.33303306       0.00000000
Si       1.92324627       2.76914362      -1.47907841       0.00000000
Si       0.35150562       2.07004198      -3.09772575       0.00000000
Si       1.75831002      -3.26710678      -0.52975420       0.00000000
Si      -0.11034846      -2.02997902      -3.24554727       0.00000000
