10
Lattice="16.28999089631971 0.0 0.0 0.0 16.28999089631971 0.0 0.0 0.0 34.529650657227435" Properties=species:S:1:pos:R:3:initial_magmoms:R:1 pbc="T T T"
Si       1.68831189       1.24740838       1.07055789       0.00000000
Si       1.24294329      -1.86747487      -0.76597167       0.00000000
Si      -0.61216191       1.39530529      -1.87965711       0.00000000
Si      -1.60617119      -0.92269329       1.55808230       0.00000000
Si       1.21643946      -3.01095142       1.23705996       0.00000000
Si       3.41943390       0.94267135      -0.61614743       0.00000000
Si      -1.06536600      -3.23677969       1.47524562       0.00000000
Si       3.38494797      -1.22385141      -1.48695118       0.00000000
Si      -0.01526373      -3.30716878      -2.22633500       0.00000000
Si       1.88113662       0.49643938       3.48269704       0.00000000
