10
Lattice="16.28999089631971 0.0 0.0 0.0 16.28999089631971 0.0 0.0 0.0 34.529650657227435" Properties=species:S:1:pos:R:3:initial_magmoms:R:1 pbc="T T T"
Si      -0.26920854      -1.44324513       1.81418886       0.00000000
Si      -2.21017833       0.75388491      -0.42571630       0.00000000
Si       0.92646117      -1.44519993      -1.67755496       0.00000000
Si       1.48449141       1.83247839       0.58206665       0.00000000
Si      -0.65492316      -3.45548367       0.68092509       0.00000000
Si      -1.99207152       3.00895848       0.27509788       0.00000000
Si       2.57033394       0.06817365      -2.59383428       0.00000000
Si       1.81828980      -1.27995417       2.91975983       0.00000000
Si      -0.02487483       3.42065565       1.52417416       0.00000000
Si       2.76073146       2.21757399      -1.39952205       0.00000000
