10
Lattice="16.28999089631971 0.0 0.0 0.0 16.28999089631971 0.0 0.0 0.0 34.529650657227435" Properties=species:S:1:pos:R:3:initial_magmoms:R:1 pbc="T T T"
Si       1.66591314       0.87197112       1.49140693       0.00000000
Si      -1.77468147       1.61021763       0.29020154       0.00000000
Si      -0.99706203      -1.81539018       1.46189096       0.00000000
Si       1.19361717       1.84371849      -1.77040524       0.00000000
Si       1.55903445      -1.70230500      -2.08441806       0.00000000
Si       0.95084730       0.19966653      -3.50348390       0.00000000
Si       3.00965895       2.06930241      -0.13259393       0.00000000
Si      -2.33129448      -0.41624208       2.92805528       0.00000000
Si       0.41111073       2.31767604       2.94235402       0.00000000
Si      -0.95832441       3.53644497       1.47743622       0.00000000
