10
Lattice="16.28999089631971 0.0 0.0 0.0 16.28999089631971 0.0 0.0 0.0 34.529650657227435" Properties=species:S:1:pos:R:3:initial_magmoms:R:1 pbc="T T T"
Si      -0.60818715       1.90197153      -1.41906585       0.00000000
Si      -1.12045878      -1.98221607      -0.91810939       0.00000000
Si       1.85233590      -1.16027154      -1.20135628       0.00000000
Si       1.26688959      -1.18789938       2.06884518       0.00000000
Si      -1.55903445       1.70230500       2.08441806       0.00000000
Si       0.28059525      -1.85937318      -2.82000362       0.00000000
Si      -0.36541728       3.54602349       0.31401282       0.00000000
Si       2.11859595      -2.88566924       0.48013506       0.00000000
Si       0.86669316       1.90285119      -3.26377893       0.00000000
Si      -0.07091037      -3.92941516       0.27772214       0.00000000
