10
Lattice="16.28999089631971 0.0 0.0 0.0 16.28999089631971 0.0 0.0 0.0 34.529650657227435" Properties=species:S:1:pos:R:3:initial_magmoms:R:1 pbc="T T T"
Si       0.07278372      -0.39345237       2.27298458       0.00000000
Si      -2.15213706       0.85869477      -0.30600194       0.00000000
Si       0.13807404      -2.13589593      -0.96883348       0.00000000
Si       1.91189214       1.20256968      -0.67923314       0.00000000
Si      -2.61988812      -0.27582228      -2.32591857       0.00000000
Si       0.04300560       1.75701401       3.12631632       0.00000000
Si      -1.98184140      -1.40173821       2.74086161       0.00000000
Si       2.28367881      -2.12203314      -1.97060826       0.00000000
Si       2.62464480       0.09585036      -2.60674837       0.00000000
Si      -3.52127898      -0.33922296       1.25681093       0.00000000
