10
Lattice="16.28999089631971 0.0 0.0 0.0 16.28999089631971 0.0 0.0 0.0 34.529650657227435" Properties=species:S:1:pos:R:3:initial_magmoms:R:1 pbc="T T T"
Si      -1.81458708      -0.80855252       1.34609226       0.00000000
Si       0.86737734       1.87312194       1.26983694       0.00000000
Si      -1.44528138      -0.79345495      -1.82737919       0.00000000
Si       1.98983979      -1.64039486      -0.04592446       0.00000000
Si      -0.45616887      -2.14609689       2.73772083       0.00000000
Si      -0.04929354      -0.11062539      -3.59412429       0.00000000
Si       2.26054701       0.59419404       2.74824893       0.00000000
Si       0.96228288      -3.43996649       1.25498918       0.00000000
Si      -1.93238985      -3.11392214      -1.38363840       0.00000000
Si       2.30301504       0.00399105      -3.19458148       0.00000000
