10
Lattice="16.28999089631971 0.0 0.0 0.0 16.28999089631971 0.0 0.0 0.0 34.529650657227435" Properties=species:S:1:pos:R:3:initial_magmoms:R:1 pbc="T T T"
Si       2.02134465       0.81307300      -0.75478406       0.00000000
Si      -1.54383588       1.59696897       0.76124110       0.00000000
Si       0.33042636      -1.32873850       1.91025040       0.00000000
Si      -1.25299422      -0.35566234      -2.00707160       0.00000000
Si      -1.15701354       1.96427589      -2.53972628       0.00000000
Si       2.65424373      -1.14409135      -1.90983605       0.00000000
Si       1.16385534       2.47739460      -2.17512750       0.00000000
Si      -3.12188076       0.19878198       1.79847786       0.00000000
Si      -0.14866254       0.18384242       3.71887998       0.00000000
Si       2.42046594      -2.31389254       1.67296251       0.00000000
