10
Lattice="16.28999089631971 0.0 0.0 0.0 16.28999089631971 0.0 0.0 0.0 34.529650657227435" Properties=species:S:1:pos:R:3:initial_magmoms:R:1 pbc="T T T"
Si      -1.63802466       0.93152736      -1.46215887       0.00000000
Si      -0.35947143       1.05573861       2.16535560       0.00000000
Si       2.21780205       0.38436255      -0.93171408       0.00000000
Si      -0.88500312      -2.34693451       0.18452656       0.00000000
Si      -2.28017646      -0.93380796      -2.77311232       0.00000000
Si      -2.26155699       0.02655270       3.01554514       0.00000000
Si      -3.63291435       1.07743689      -0.18014129       0.00000000
Si      -0.38876085      -3.12322373       2.32864641       0.00000000
Si      -1.15970139       3.25296639       2.05869345       0.00000000
Si       2.82235653      -1.15053012      -2.65205130       0.00000000
