10
Lattice="16.28999089631971 0.0 0.0 0.0 16.28999089631971 0.0 0.0 0.0 34.529650657227435" Properties=species:S:1:pos:R:3:initial_magmoms:R:1 pbc="T T T"
Si      -0.26626005       1.72539770      -1.68149134       0.00000000
Si      -2.18950632      -1.04374591      -0.20241293       0.00000000
Si      -0.85170636       1.69776986       1.58871011       0.00000000
Si       1.94626404      -1.23868901       1.38467429       0.00000000
Si       1.60653609      -1.42437872      -2.36839006       0.00000000
Si      -2.11859595       2.88566924      -0.48013506       0.00000000
Si      -3.23905473       0.90345317      -1.39824446       0.00000000
Si      -1.89270252       0.25754327       3.13062014       0.00000000
Si      -1.83800070       1.02629606      -3.30013868       0.00000000
Si      -3.55222998      -0.74093273       1.75041256       0.00000000
