10
Lattice="16.28999089631971 0.0 0.0 0.0 16.28999089631971 0.0 0.0 0.0 34.529650657227435" Properties=species:S:1:pos:R:3:initial_magmoms:R:1 pbc="T T T"
Si       1.34804800       1.33172379      -1.37963987       0.00000000
Si      -1.35760543       1.35399222       1.35632544       0.00000000
Si       1.35601381      -1.35772263       1.35746491       0.00000000
Si      -1.34613182      -1.34690607      -1.37975382       0.00000000
Si      -0.00050336       2.71417464       2.71334146       0.00000000
Si      -2.71343086       2.71433754      -0.00652611       0.00000000
Si       2.71500706      -0.00117288       2.71341052       0.00000000
Si      -2.71543453      -0.00120546       2.71361770       0.00000000
Si       2.71383418      -2.71554626      -0.00462698       0.00000000
Si       2.71409482       2.71528236      -0.00749294       0.00000000
