10
Lattice="16.28999089631971 0.0 0.0 0.0 16.28999089631971 0.0 0.0 0.0 34.529650657227435" Properties=species:S:1:pos:R:3:initial_magmoms:R:1 pbc="T T T"
Si      -1.26169308      -1.44331029       1.59621829       0.00000000
Si       1.38372147       1.20301650       1.70441355       0.00000000
Si       1.13323014      -1.20811527      -2.01218199       0.00000000
Si      -1.27523007       1.72535535      -1.65700980       0.00000000
Si      -2.69767287       2.42791047       0.11425868       0.00000000
Si      -2.88140778      -2.53159632       0.23127973       0.00000000
Si       3.30128253       1.96644735       0.54544210       0.00000000
Si       2.33994447       0.57088305      -3.14333944       0.00000000
Si      -2.59444314      -0.04813695       3.16183496       0.00000000
Si       2.96517096       2.28211497      -1.68159493       0.00000000
