10
Lattice="16.28999089631971 0.0 0.0 0.0 16.28999089631971 0.0 0.0 0.0 34.529650657227435" Properties=species:S:1:pos:R:3:initial_magmoms:R:1 pbc="T T T"
Si      -1.27624005      -0.38509560       1.98158870       0.00000000
Si      -1.18983789       1.97416881      -0.86679830       0.00000000
Si      -0.19039752      -2.14940034      -1.19431222       0.00000000
Si       2.46177738      -0.31653099       0.21442925       0.00000000
Si       1.68435342      -2.37074886       1.39959111       0.00000000
Si      -0.75880449      -1.30548060      -3.32803865       0.00000000
Si       0.27961785      -0.24361695       3.74888627       0.00000000
Si      -2.76073146      -2.21757399       1.39952205       0.00000000
Si       0.00695583       2.64464892      -2.74566124       0.00000000
Si       0.58217202       0.66054321      -3.86314494       0.00000000
