10
Lattice="16.28999089631971 0.0 0.0 0.0 16.28999089631971 0.0 0.0 0.0 34.529650657227435" Properties=species:S:1:pos:R:3:initial_magmoms:R:1 pbc="T T T"
Si      -1.35780408       1.35729909       1.36461256       0.00000000
Si       1.35674523      -1.36026387       1.36461256       0.00000000
Si       1.36519974       1.37036367      -1.36495440       0.00000000
Si      -1.36651923      -1.39009086      -1.36811387       0.00000000
Si       2.71454931      -2.71140534       0.00293502       0.00000000
Si      -2.71261080      -2.71397916       0.01035890       0.00000000
Si      -2.71534752       2.71300176       0.00203725       0.00000000
Si       2.71326240       2.71687878       0.01136026       0.00000000
Si       0.00063531       2.71412577       2.72235371       0.00000000
Si      -2.71469592      -0.00151497       2.72187029       0.00000000
