10
Lattice="16.28999089631971 0.0 0.0 0.0 16.28999089631971 0.0 0.0 0.0 34.529650657227435" Properties=species:S:1:pos:R:3:initial_magmoms:R:1 pbc="T T T"
Si      -0.49212090      -0.44844741       2.24021593       0.00000000
Si       1.53771084       1.77981282       0.13715185       0.00000000
Si      -1.88481816       1.15686693      -0.82795243       0.00000000
Si       0.53652744      -1.92599928      -1.36613186       0.00000000
Si       3.62775042       0.79465878      -0.10013604       0.00000000
Si      -1.49809356      -2.33122932      -2.52543100       0.00000000
Si       1.20728448       3.10855132      -1.77309855       0.00000000
Si      -1.05924096      -2.69708643       2.42436266       0.00000000
Si      -1.91459628       3.30733331       0.02537931       0.00000000
Si       1.73332116      -1.25551917      -3.24499479       0.00000000
