10
Lattice="16.28999089631971 0.0 0.0 0.0 16.28999089631971 0.0 0.0 0.0 34.529650657227435" Properties=species:S:1:pos:R:3:initial_magmoms:R:1 pbc="T T T"
Si       1.90298151       0.81993923      -1.26099044       0.00000000
Si       1.34192133      -1.29749692       1.55561688       0.00000000
Si      -1.34332227       1.41667451       1.52593863       0.00000000
Si      -1.54606761      -1.29838698      -1.59903591       0.00000000
Si      -2.64935673      -2.67961608       0.04635263       0.00000000
Si       2.56381794      -2.78199873       0.19118733       0.00000000
Si       2.66279598       2.72428910       0.11021525       0.00000000
Si      -2.72432331       2.72635793      -0.03006153       0.00000000
Si       1.15786062       0.91155419      -3.61021653       0.00000000
Si       3.63252339      -1.02542129      -0.99606910       0.00000000
