10
Lattice="16.28999089631971 0.0 0.0 0.0 16.28999089631971 0.0 0.0 0.0 34.529650657227435" Properties=species:S:1:pos:R:3:initial_magmoms:R:1 pbc="T T T"
Si       0.41598144       1.07399970      -2.04470894       0.00000000
Si       1.16556579      -2.03889712      -0.12679295       0.00000000
Si      -2.35009314      -0.50220441      -0.29902694       0.00000000
Si       0.48664746       1.48247145       1.86273758       0.00000000
Si      -1.75762584       2.26362582       1.87558261       0.00000000
Si      -3.15340191       0.32889510       1.74633806       0.00000000
Si       0.76312134      -2.75001983      -2.37405293       0.00000000
Si       1.04353740      -0.66692889      -3.62012513       0.00000000
Si      -1.16840025       2.91577968      -2.25323361       0.00000000
Si       1.16654319       0.10213830       3.70779596       0.00000000
