10
Lattice="16.28999089631971 0.0 0.0 0.0 16.28999089631971 0.0 0.0 0.0 34.529650657227435" Properties=species:S:1:pos:R:3:initial_magmoms:R:1 pbc="T T T"
Si       2.19978272       0.14460144       0.71552382       0.00000000
Si      -1.16556579       2.03889712       0.12679295       0.00000000
Si      -0.63741141      -1.70160357       1.54261301       0.00000000
Si      -0.40244445      -0.71112270      -2.24725998       0.00000000
Si       2.74058792      -2.16948495       0.63268714       0.00000000
Si      -2.66717799      -1.86623031      -1.76961106       0.00000000
Si       1.95742010       0.94871494       3.00197498       0.00000000
Si      -0.74958435       3.11289682      -1.91791599       0.00000000
Si      -0.12202839       1.37196824      -3.49333218       0.00000000
Si      -2.82857931      -1.25369373       2.13842246       0.00000000
