10
Lattice="16.28999089631971 0.0 0.0 0.0 16.28999089631971 0.0 0.0 0.0 34.529650657227435" Properties=species:S:1:pos:R:3:initial_magmoms:R:1 pbc="T T T"
Si      -1.92510333      -0.87039099       1.09597172       0.00000000
Si      -0.67989573       1.38033315      -1.84505838       0.00000000
Si       0.76706352       1.05158466       2.02223012       0.00000000
Si       1.95644270      -1.19232049      -0.83261393       0.00000000
Si       3.58180352       0.43787520      -0.43082669       0.00000000
Si       3.04429868       0.78332094       1.90213593       0.00000000
Si      -3.46245579      -1.43756481      -0.54111446       0.00000000
Si       2.63765141      -2.53261884       1.02311412       0.00000000
Si      -2.52965781       0.66450168       2.81630894       0.00000000
Si      -1.16654319      -0.10213830      -3.70779596       0.00000000
