10
Lattice="16.28999089631971 0.0 0.0 0.0 16.28999089631971 0.0 0.0 0.0 34.529650657227435" Properties=species:S:1:pos:R:3:initial_magmoms:R:1 pbc="T T T"
Si      -1.33309215      -1.34229600       1.37329332       0.00000000
Si       1.38186441       1.37098269       1.36921881       0.00000000
Si      -1.42429986       1.24901946      -1.47438928       0.00000000
Si       1.31740488      -1.39937616      -1.44230777       0.00000000
Si       0.49326120       2.01245031      -2.63336074       0.00000000
Si       2.30591466       0.28396728      -2.86392678       0.00000000
Si      -2.68871337      -2.70699075      -0.02658439       0.00000000
Si      -2.69457777       2.72047887      -0.01735807       0.00000000
Si      -2.69358408       0.01119123       2.73203583       0.00000000
Si       0.01989009      -2.70264132       2.73165600       0.00000000
