10
Lattice="16.28999089631971 0.0 0.0 0.0 16.28999089631971 0.0 0.0 0.0 34.529650657227435" Properties=species:S:1:pos:R:3:initial_magmoms:R:1 pbc="T T T"
Si       1.35711990      -1.35684297      -1.35746491       0.00000000
Si      -1.35933534      -1.35674523       1.35629091       0.00000000
Si      -1.35788553       1.35806472      -1.35763756       0.00000000
Si       1.35806472       1.35948195       1.35791380       0.00000000
Si       2.71448084      -2.71406061       0.00027624       0.00000000
Si      -2.71538010      -2.71401174      -0.00044889       0.00000000
Si       2.71494900      -0.00164529      -2.71475718       0.00000000
Si      -0.00156384       2.71453302      -2.71541325       0.00000000
Si      -0.00285075      -2.71492398      -2.71517154       0.00000000
Si      -2.71632492      -0.00109143      -2.71479171       0.00000000
