10
Lattice="16.28999089631971 0.0 0.0 0.0 16.28999089631971 0.0 0.0 0.0 34.529650657227435" Properties=species:S:1:pos:R:3:initial_magmoms:R:1 pbc="T T T"
Si       1.35767739       1.35676152      -1.35822457       0.00000000
Si      -1.35806472      -1.35948195      -1.35791380       0.00000000
Si       1.36031641      -1.36275624       1.35843175       0.00000000
Si      -1.35949824       1.35850455       1.36416367       0.00000000
Si       2.71325981       2.71239903      -0.00217537       0.00000000
Si      -0.01021383      -2.70221778       2.72528873       0.00000000
Si      -0.00058644       2.71394658      -2.71548230       0.00000000
Si       2.71398635      -0.00094482      -2.71565495       0.00000000
Si       2.71388698      -2.71619460      -0.00065606       0.00000000
Si      -2.71595025      -0.00141723      -2.71555136       0.00000000
