10
Lattice="16.28999089631971 0.0 0.0 0.0 16.28999089631971 0.0 0.0 0.0 34.529650657227435" Properties=species:S:1:pos:R:3:initial_magmoms:R:1 pbc="T T T"
Si      -0.91318482       0.92717793       2.00731330       0.00000000
Si       1.83054218      -1.24198218       0.92422115       0.00000000
Si       1.16054218       1.58187303      -1.38912862       0.00000000
Si      -1.59643629      -1.13911083      -1.42200087       0.00000000
Si       3.47718914       0.42841071       0.50844939       0.00000000
Si       2.50349022       2.70148473       0.23428381       0.00000000
Si      -0.20232180      -2.39347341      -2.90394524       0.00000000
Si       2.53225185       0.31794822      -2.89911109       0.00000000
Si      -2.00282292      -1.01403621       3.15335305       0.00000000
Si      -2.84757345      -2.71129131      -0.15925084       0.00000000
