10
Lattice="16.28999089631971 0.0 0.0 0.0 16.28999089631971 0.0 0.0 0.0 34.529650657227435" Properties=species:S:1:pos:R:3:initial_magmoms:R:1 pbc="T T T"
Si       0.28386954      -1.24432794       1.96836384       0.00000000
Si       1.13963211       2.06337285      -0.17233758       0.00000000
Si      -2.28556845       0.71131914       0.22281996       0.00000000
Si       0.87309513      -0.59217408      -2.16045239       0.00000000
Si      -0.34609734       3.04842915      -1.75514312       0.00000000
Si      -2.52897363       2.12491647      -1.62237654       0.00000000
Si       0.10308312       0.29628252       3.70634571       0.00000000
Si       2.52814284      -2.02548231       1.95551880       0.00000000
Si      -1.00835100      -1.40875920      -3.36874913       0.00000000
Si      -1.11190653      -3.17905866       1.83911928       0.00000000
