10
Lattice="16.28999089631971 0.0 0.0 0.0 16.28999089631971 0.0 0.0 0.0 34.529650657227435" Properties=species:S:1:pos:R:3:initial_magmoms:R:1 pbc="T T T"
Si       0.73432062       1.72092447      -1.40777464       0.00000000
Si      -1.99876671       0.91588896       1.02566932       0.00000000
Si      -0.07545528      -1.86965217      -1.55418044       0.00000000
Si       1.47703941      -0.48982401       1.96556693       0.00000000
Si       0.79218270      -2.80502397       1.90693555       0.00000000
Si      -1.11249297       3.12155496      -1.54237130       0.00000000
Si       0.61100532       0.83973321      -3.59705931       0.00000000
Si       0.89197524      -3.70828655      -0.31401282       0.00000000
Si       3.65535287      -0.76540194       0.93492534       0.00000000
Si      -1.37354022       2.62712088       2.48741383       0.00000000
