10
Lattice="16.28999089631971 0.0 0.0 0.0 16.28999089631971 0.0 0.0 0.0 34.529650657227435" Properties=species:S:1:pos:R:3:initial_magmoms:R:1 pbc="T T T"
Si       1.33801499       1.35293337      -1.37735400       0.00000000
Si      -1.36404341      -1.37196009      -1.37169114       0.00000000
Si       1.84781054      -0.70591086       1.33961308       0.00000000
Si      -1.37170966       1.26392481       1.50998247       0.00000000
Si       0.94493729       0.11046249       3.40756048       0.00000000
Si       2.70383375       2.71054197      -0.00783824       0.00000000
Si      -2.71979862       2.69693982       0.02037251       0.00000000
Si       2.71212536      -2.70835911       0.02182275       0.00000000
Si       2.70427358      -0.01211976      -2.73043365       0.00000000
Si      -0.01110001       2.70319518      -2.73229825       0.00000000
