10
Lattice="16.28999089631971 0.0 0.0 0.0 16.28999089631971 0.0 0.0 0.0 34.529650657227435" Properties=species:S:1:pos:R:3:initial_magmoms:R:1 pbc="T T T"
Si      -1.35777150       1.35900954      -1.35352853       0.00000000
Si      -1.35584928      -1.35866745       1.35715415       0.00000000
Si       1.35917244       1.35589815       1.35732680       0.00000000
Si       1.36324494      -1.36129014      -1.36036541       0.00000000
Si      -2.71238274       2.71191429       0.00048342       0.00000000
Si      -2.71287144      -0.00164529       2.71455000       0.00000000
Si       0.00143352       2.71340891       2.71448094       0.00000000
Si       0.00105885      -2.71577106       2.71437736       0.00000000
Si       2.71739623       2.71289269       0.00027624       0.00000000
Si       2.71657974      -0.00149868       2.71461906       0.00000000
