10
Lattice="16.28999089631971 0.0 0.0 0.0 16.28999089631971 0.0 0.0 0.0 34.529650657227435" Properties=species:S:1:pos:R:3:initial_magmoms:R:1 pbc="T T T"
Si       1.35321030       1.34597784      -1.37635264       0.00000000
Si      -1.36917450      -1.36541151      -1.37486787       0.00000000
Si      -1.39246920       1.29305133       1.44472139       0.00000000
Si       1.18871388      -1.50845400       1.42907945       0.00000000
Si      -2.27076084      -0.55381113       2.69265819       0.00000000
Si      -0.58023351      -2.38780449       2.87020976       0.00000000
Si       2.69321008       2.69387960      -0.00027624       0.00000000
Si      -2.72448621       2.67348126      -0.01132573       0.00000000
Si       2.68213451      -2.73517245      -0.00849430       0.00000000
Si      -0.00679293       2.70387189      -2.73247090       0.00000000
