10
Lattice="16.28999089631971 0.0 0.0 0.0 16.28999089631971 0.0 0.0 0.0 34.529650657227435" Properties=species:S:1:pos:R:3:initial_magmoms:R:1 pbc="T T T"
Si       0.87829164       1.84686246      -1.24793680       0.00000000
Si      -1.34376210       0.83987982       1.83273129       0.00000000
Si      -1.87271469      -0.96977628      -1.28623021       0.00000000
Si       1.69052733      -1.83399336       0.17755156       0.00000000
Si      -0.44999496      -2.17556208      -2.71316882       0.00000000
Si       2.27076084       0.55381113      -2.69265819       0.00000000
Si       0.12127905       0.54643176       3.71411489       0.00000000
Si       3.45947472      -0.95464287      -1.26357874       0.00000000
Si       0.87619023      -3.50498898      -1.27497353       0.00000000
Si      -2.66416434      -2.83266810       0.03998536       0.00000000
