10
Lattice="16.28999089631971 0.0 0.0 0.0 16.28999089631971 0.0 0.0 0.0 34.529650657227435" Properties=species:S:1:pos:R:3:initial_magmoms:R:1 pbc="T T T"
Si       0.23405472       1.16152587       2.01822468       0.00000000
Si       2.13748325      -0.65588427      -0.75015708       0.00000000
Si      -1.51399260      -1.80354735       0.18656381       0.00000000
Si      -1.07800704       0.94718205      -1.90921451       0.00000000
Si       2.19803318       2.25720220       1.40587551       0.00000000
Si      -0.94633497      -1.11374730      -3.12641991       0.00000000
Si      -3.55434768      -0.56847213      -0.02624255       0.00000000
Si      -0.90544707      -3.01962843      -1.73829264       0.00000000
Si       2.29999229       0.47930067      -2.81914037       0.00000000
Si       3.68040689       0.64172826       0.52540346       0.00000000
