10
Lattice="16.28999089631971 0.0 0.0 0.0 16.28999089631971 0.0 0.0 0.0 34.529650657227435" Properties=species:S:1:pos:R:3:initial_magmoms:R:1 pbc="T T T"
Si      -2.09003958       0.98515404       0.23728789       0.00000000
Si       0.80835867      -1.64359584       1.52483023       0.00000000
Si       1.61153712       1.74006522       0.43248412       0.00000000
Si      -0.05139495      -0.79376283      -2.29563605       0.00000000
Si       1.98896013      -2.02883805      -2.08282969       0.00000000
Si       2.01837987      -3.06862875       0.04506122       0.00000000
Si      -3.62775042      -0.79465878       0.10013604       0.00000000
Si      -2.42046594       2.31389254      -1.67296251       0.00000000
Si       2.41681698      -0.46380888       2.83844246       0.00000000
Si       0.23377779       1.16980119      -3.58279855       0.00000000
