10
Lattice="16.28999089631971 0.0 0.0 0.0 16.28999089631971 0.0 0.0 0.0 34.529650657227435" Properties=species:S:1:pos:R:3:initial_magmoms:R:1 pbc="T T T"
Si       1.00473462      -1.77758109       1.28163776       0.00000000
Si       0.69051681      -0.10648773      -2.30948245       0.00000000
Si      -2.35665312      -0.49927221       0.16498276       0.00000000
Si       1.17525834       1.97628651       0.75626883       0.00000000
Si      -0.69752151      -1.76935464       2.94731451       0.00000000
Si      -2.54164236      -2.32275852      -1.42179369       0.00000000
Si       0.85643046      -2.38405779      -2.86578996       0.00000000
Si       2.53006506       1.26594477       2.59583700       0.00000000
Si       2.72093499       2.52706770      -0.99883976       0.00000000
Si       3.04697934      -0.99999423       2.27042939       0.00000000
