10
Lattice="16.28999089631971 0.0 0.0 0.0 16.28999089631971 0.0 0.0 0.0 34.529650657227435" Properties=species:S:1:pos:R:3:initial_magmoms:R:1 pbc="T T T"
Si       0.59170216       0.56513268      -2.24853758       0.00000000
Si       2.25083377      -0.70494975       0.53379417       0.00000000
Si      -1.66131465      -1.79494623       0.22447738       0.00000000
Si      -0.36709044       2.15814807       1.18723364       0.00000000
Si       0.80194253       1.62903258       3.13954118       0.00000000
Si       2.80210366       0.70154514       2.31849469       0.00000000
Si      -0.94559721       2.21467437      -3.07265721       0.00000000
Si      -0.98141892      -3.17527938       2.06953577       0.00000000
Si       0.41885386       3.90021696      -0.28241817       0.00000000
Si       2.94835528       1.06440489      -2.41352034       0.00000000
