10
Lattice="16.28999089631971 0.0 0.0 0.0 16.28999089631971 0.0 0.0 0.0 34.529650657227435" Properties=species:S:1:pos:R:3:initial_magmoms:R:1 pbc="T T T"
Si       0.95166180       0.04610070      -2.09284330       0.00000000
Si       1.50122124      -0.64024587       1.62781190       0.00000000
Si      -0.35607496       2.27830311       0.07579263       0.00000000
Si      -0.45431181      -1.36708938       2.84417926       0.00000000
Si      -2.19282038      -2.37110724       1.40563380       0.00000000
Si      -0.92781487       0.48140208      -3.45027368       0.00000000
Si       1.94766498       2.24538102      -2.24929723       0.00000000
Si      -1.90569284       2.89342980       1.64463855       0.00000000
Si       2.31757830       1.28598147       2.81504658       0.00000000
Si      -1.49100578      -3.44390148      -1.11268408       0.00000000
