10
Lattice="16.28999089631971 0.0 0.0 0.0 16.28999089631971 0.0 0.0 0.0 34.529650657227435" Properties=species:S:1:pos:R:3:initial_magmoms:R:1 pbc="T T T"
Si      -1.86610162       1.40504508       0.23089990       0.00000000
Si       1.64858710       1.44041067       0.96641640       0.00000000
Si      -0.78594430      -1.74206889       1.46965181       0.00000000
Si       1.06890745       1.56704913      -2.67718890       0.00000000
Si       2.84438713       1.32429555      -1.05463971       0.00000000
Si      -1.36445107      -1.68554259      -2.79023904       0.00000000
Si      -3.61546843      -0.15260472       0.19464375       0.00000000
Si       0.17284830      -3.33508428      -1.96611941       0.00000000
Si      -0.41885386      -3.90021696       0.28241817       0.00000000
Si      -1.90698952       3.31092621      -1.15722736       0.00000000
