10
Lattice="16.28999089631971 0.0 0.0 0.0 16.28999089631971 0.0 0.0 0.0 34.529650657227435" Properties=species:S:1:pos:R:3:initial_magmoms:R:1 pbc="T T T"
Si      -2.17888151      -0.76150863       0.37212625       0.00000000
Si       0.26744222       0.73360386      -2.23455306       0.00000000
Si      -0.50146763       1.89767097       1.43923117       0.00000000
Si       0.77471282      -2.31647058       0.17931258       0.00000000
Si      -1.53769082       3.04404714      -0.35707132       0.00000000
Si       2.34865424      -0.26319753      -2.55781983       0.00000000
Si       0.40468058       3.02138775      -1.70407374       0.00000000
Si      -2.37801047      -2.63039517      -0.99103606       0.00000000
Si       1.84654757      -2.47189347      -2.01501342       0.00000000
Si      -1.93612793       0.43922727      -3.15045256       0.00000000
