10
Lattice="16.28999089631971 0.0 0.0 0.0 16.28999089631971 0.0 0.0 0.0 34.529650657227435" Properties=species:S:1:pos:R:3:initial_magmoms:R:1 pbc="T T T"
Si       2.08121203      -0.99680139      -0.32326677       0.00000000
Si       0.13723836       2.28778389       0.53047932       0.00000000
Si      -0.26744222      -0.73360386       2.23455306       0.00000000
Si      -2.20357015      -0.29437659      -0.91589950       0.00000000
Si      -1.80513304       2.31044328       1.87748174       0.00000000
Si       1.57910536      -3.20549733       0.21953964       0.00000000
Si      -3.41359135       1.13065632       0.56386951       0.00000000
Si       3.54543868      -0.24710301       1.42307129       0.00000000
Si      -2.23298989       0.74541411      -3.04379041       0.00000000
Si      -2.44632373      -1.49511249       2.60667931       0.00000000
