10
Lattice="16.28999089631971 0.0 0.0 0.0 16.28999089631971 0.0 0.0 0.0 34.529650657227435" Properties=species:S:1:pos:R:3:initial_magmoms:R:1 pbc="T T T"
Si      -1.54961787       0.61512669       1.56884593       0.00000000
Si       0.35607496      -2.27830311      -0.07579263       0.00000000
Si       1.51447316       1.72058238      -0.64553218       0.00000000
Si       2.30373994      -0.03292209      -2.32508986       0.00000000
Si      -2.94733245       1.59229863      -0.18532074       0.00000000
Si       1.30773677      -2.23220241      -2.16863592       0.00000000
Si      -0.00581390       1.95740640       2.78636278       0.00000000
Si       1.29454186       3.32276904       1.27725249       0.00000000
Si       1.85729620      -2.91854898       1.55201927       0.00000000
Si      -1.84792035       2.41724052      -2.26614771       0.00000000
