10
Lattice="16.28999089631971 0.0 0.0 0.0 16.28999089631971 0.0 0.0 0.0 34.529650657227435" Properties=species:S:1:pos:R:3:initial_magmoms:R:1 pbc="T T T"
Si      -1.35492362       1.35318268       1.35822457       0.00000000
Si       1.35691628      -1.36233270       1.35777568       0.00000000
Si       1.36076072       1.34088254      -1.37633193       0.00000000
Si      -1.35483834      -1.35829278      -1.36646680       0.00000000
Si       0.04357738      -2.62832634      -2.78156173       0.00000000
Si      -2.71088310       2.70960597      -0.00604269       0.00000000
Si       0.00184403       2.71116492       2.71503342       0.00000000
Si       2.71586066       2.71197942      -0.00303861       0.00000000
Si      -2.71314741      -0.00381186       2.71527513       0.00000000
Si      -2.70907491      -2.72100015      -0.00241708       0.00000000
