10
Lattice="16.28999089631971 0.0 0.0 0.0 16.28999089631971 0.0 0.0 0.0 34.529650657227435" Properties=species:S:1:pos:R:3:initial_magmoms:R:1 pbc="T T T"
Si      -0.83782728      -1.83508479      -1.24165240       0.00000000
Si      -0.05390361      -0.43642539       2.42508778       0.00000000
Si       2.01161952       0.92554893      -1.10336107       0.00000000
Si      -1.71206271       1.88967258       0.20279275       0.00000000
Si      -0.44716050       1.97074791       2.48972732       0.00000000
Si      -2.07341238      -0.38340144      -2.62625764       0.00000000
Si       0.67452003       2.34401697      -2.60440036       0.00000000
Si       2.23231644      -1.16717850       2.60046397       0.00000000
Si      -3.56683301       0.84331701      -1.18868389       0.00000000
Si      -0.75471570       3.66661836      -1.17380160       0.00000000
