10
Lattice="16.28999089631971 0.0 0.0 0.0 16.28999089631971 0.0 0.0 0.0 34.529650657227435" Properties=species:S:1:pos:R:3:initial_magmoms:R:1 pbc="T T T"
Si       0.09306803      -1.16419743       2.01808656       0.00000000
Si       2.42071843       0.00421911      -0.12748354       0.00000000
Si      -1.77241620       1.53297045       0.69414996       0.00000000
Si       1.15581623      -0.07685622      -2.41441811       0.00000000
Si       2.81397532      -2.40295419      -0.19212308       0.00000000
Si       1.37061616       0.07460820       3.57409708       0.00000000
Si       1.10018587      -3.26231685       1.74685600       0.00000000
Si      -1.36997175       2.24409315       2.94140994       0.00000000
Si      -1.49200014       3.61606139      -0.55192224       0.00000000
Si      -2.46790146      -2.00256228      -2.36476445       0.00000000
