10
Lattice="10.86 0.0 0.0 0.0 10.86 0.0 0.0 0.0 10.86" Properties=species:S:1:pos:R:3:initial_magmoms:R:1 pbc="T T T"
Si      -1.35750000      -1.35750000       1.35750000       0.00000000
Si       1.35750000      -1.35750000      -1.35750000       0.00000000
Si       1.35750000       1.35750000       1.35750000       0.00000000
Si      -1.35750000       1.35750000      -1.35750000       0.00000000
Si      -2.57769702      -0.28007940      -2.36511252       0.00000000
Si      -2.63460342       2.39886540       0.12798510       0.00000000
Si       2.65045902       0.06304230      -2.50725906       0.00000000
Si       0.00000000      -2.71500000      -2.71500000       0.00000000
Si      -2.71500000       0.00000000       2.71500000       0.00000000
Si       0.00000000       2.71500000       2.71500000       0.00000000
