10
Lattice="10.86 0.0 0.0 0.0 10.86 0.0 0.0 0.0 10.86" Properties=species:S:1:pos:R:3:initial_magmoms:R:1 pbc="T T T"
Si       1.29298074      -1.28484660      -1.15840362       0.00000000
Si      -1.42201926       1.43015340      -1.15840362       0.00000000
Si      -1.42201926      -1.28484660       1.55659638       0.00000000
Si      -0.06451926      -2.64234660      -2.51590362       0.00000000
Si       2.65048074       0.07265340      -2.51590362       0.00000000
Si       2.65048074      -2.64234660       0.19909638       0.00000000
Si      -2.77951926       0.07265340      -2.51590362       0.00000000
Si      -0.06451926       2.78765340      -2.51590362       0.00000000
Si      -2.77951926      -2.64234660       0.19909638       0.00000000
Si      -0.06451926      -2.64234660       2.91409638       0.00000000
