10
Lattice="16.28999089631971 0.0 0.0 0.0 16.28999089631971 0.0 0.0 0.0 34.40785480372833" Properties=species:S:1:pos:R:3:initial_magmoms:R:1 pbc="T T T"
Si      -1.20852482       1.35022923       1.46140219       0.00000000
Si       0.83099037       1.84098177      -1.28481208       0.00000000
Si      -1.83725366      -0.66091951      -1.46414592       0.00000000
Si       1.50090033      -1.35079513       1.41867105       0.00000000
Si       0.30114834       0.75704517      -3.35547794       0.00000000
Si      -2.40528596      -2.59094798      -0.09347587       0.00000000
Si      -2.66421551       2.57864184       0.13635496       0.00000000
Si      -2.55541460      -0.00471921       2.80385637       0.00000000
Si      -0.94639361       3.60927756      -1.12390155       0.00000000
Si       0.16340988       2.70756090       2.79948657       0.00000000
