10
Lattice="16.28999089631971 0.0 0.0 0.0 16.28999089631971 0.0 0.0 0.0 34.40785480372833" Properties=species:S:1:pos:R:3:initial_magmoms:R:1 pbc="T T T"
Si      -2.11487598      -0.10420713       0.96101192       0.00000000
Si       1.29988987      -1.06020207       1.64418026       0.00000000
Si      -0.05564175      -1.00398528      -2.12503030       0.00000000
Si       0.07540315       2.30468381      -0.56311927       0.00000000
Si      -3.41154369       0.10883349      -1.04410694       0.00000000
Si       3.17273488       0.34471269       1.69014918       0.00000000
Si      -2.34917505      -1.36638891      -2.48779252       0.00000000
Si       0.33858439       0.75294402      -3.68329410       0.00000000
Si       1.41751996       2.53411217      -2.50293198       0.00000000
Si       0.40807753      -0.50383341       3.82202665       0.00000000
