10
Lattice="16.28999089631971 0.0 0.0 0.0 16.28999089631971 0.0 0.0 0.0 34.40785480372833" Properties=species:S:1:pos:R:3:initial_magmoms:R:1 pbc="T T T"
Si      -0.09014886      -1.12366791       2.08442901       0.00000000
Si      -1.19193930      -1.08237276      -1.78122682       0.00000000
Si       2.33820144       0.02221956      -0.58758326       0.00000000
Si      -0.88495425       2.20664340       0.42414586       0.00000000
Si      -2.30302481      -1.67884740       2.35215668       0.00000000
Si       3.33892872       0.70214787       1.42837407       0.00000000
Si      -0.03883536      -3.13097058      -2.05831343       0.00000000
Si       0.98789076       3.61155816       0.47011478       0.00000000
Si      -0.96374898       0.30789729      -3.71966322       0.00000000
Si       2.65336407       1.64709819      -2.27026594       0.00000000
