10
Lattice="16.28999089631971 0.0 0.0 0.0 16.28999089631971 0.0 0.0 0.0 34.40785480372833" Properties=species:S:1:pos:R:3:initial_magmoms:R:1 pbc="T T T"
Si       0.17259255       2.04396236      -1.10414868       0.00000000
Si       0.08498493      -1.45591875      -1.82475278       0.00000000
Si       1.61749926      -0.88239672       1.44864031       0.00000000
Si      -1.76959899      -0.10534743       1.58530839       0.00000000
Si      -0.30646377      -1.60754607       2.60983725       0.00000000
Si      -1.38145716       1.50052307      -2.80111062       0.00000000
Si      -1.84666698      -0.81968022      -2.97796709       0.00000000
Si       2.58315417       0.87544319       2.62077895       0.00000000
Si      -2.13592199       2.29626188       2.17488731       0.00000000
Si       2.41036614       2.33747558      -1.91603687       0.00000000
