10
Lattice="16.28999089631971 0.0 0.0 0.0 16.28999089631971 0.0 0.0 0.0 34.40785480372833" Properties=species:S:1:pos:R:3:initial_magmoms:R:1 pbc="T T T"
Si      -1.69871047       1.00494639      -1.34789406       0.00000000
Si       1.00766193      -1.70525023      -1.34865103       0.00000000
Si      -1.84128055      -1.18462509       1.16818173       0.00000000
Si       2.06770762       2.02527054      -0.00302789       0.00000000
Si       1.46779579       0.05499504       3.05266658       0.00000000
Si      -0.67584508      -1.09258659       3.23034885       0.00000000
Si      -0.36566212       2.35346517      -2.71921988       0.00000000
Si       2.36278468      -0.37413243      -2.72094027       0.00000000
Si      -3.03993133       2.37669471       0.11038046       0.00000000
Si       2.47611421      -2.99516818      -0.03017571       0.00000000
