10
Lattice="16.28999089631971 0.0 0.0 0.0 16.28999089631971 0.0 0.0 0.0 34.40785480372833" Properties=species:S:1:pos:R:3:initial_magmoms:R:1 pbc="T T T"
Si      -0.40203720       0.99455337      -2.06068758       0.00000000
Si       0.85463856       1.82045637       1.25836477       0.00000000
Si       1.34796492      -1.89394382      -0.54044448       0.00000000
Si      -2.23777359      -0.29351322       0.81188820       0.00000000
Si      -2.34993024      -0.19865655      -2.63461091       0.00000000
Si      -0.37375776      -3.33602000      -1.33333953       0.00000000
Si      -0.87135210       3.21092190      -1.58228050       0.00000000
Si       2.74185135       0.88454700       2.33034208       0.00000000
Si       1.73273472       0.95977422      -3.15279350       0.00000000
Si      -0.87074937       2.24559279       2.88596043       0.00000000
