10
Lattice="16.28999089631971 0.0 0.0 0.0 16.28999089631971 0.0 0.0 0.0 34.40785480372833" Properties=species:S:1:pos:R:3:initial_magmoms:R:1 pbc="T T T"
Si      -0.16609284      -1.36179743       1.85678965       0.00000000
Si      -0.96565491      -1.75783991      -1.17213864       0.00000000
Si       2.00718864       0.18389618      -1.31341737       0.00000000
Si      -0.56501865       2.37510318       0.40054206       0.00000000
Si       1.75417236       2.05648707       1.40566488       0.00000000
Si       0.60685137       0.60490960       2.99675520       0.00000000
Si       1.47488031      -3.06416759       1.63038270       0.00000000
Si      -2.58315417      -0.87544319      -2.62077895       0.00000000
Si      -2.88961794      -2.48298926      -0.01094170       0.00000000
Si       3.66336036       1.16930109       0.10133119       0.00000000
