10
Lattice="16.28999089631971 0.0 0.0 0.0 16.28999089631971 0.0 0.0 0.0 34.40785480372833" Properties=species:S:1:pos:R:3:initial_magmoms:R:1 pbc="T T T"
Si       1.35589815       1.35803214      -1.35742504       0.00000000
Si      -1.35907470      -1.35874890      -1.35825083       0.00000000
Si      -1.35663120       1.36065483       1.36072819       0.00000000
Si       1.35573525      -1.36280511       1.36007444       0.00000000
Si       2.71327869      -2.71408016      -0.00086020       0.00000000
Si       2.71221984       2.71524978       0.00003441       0.00000000
Si       2.71332756       0.00043983      -2.71450600       0.00000000
Si      -0.00184077      -2.71474805      -2.71481567       0.00000000
Si      -0.00136836       2.71528236      -2.71495330       0.00000000
Si      -2.71790505      -2.71307832      -0.00203006       0.00000000
