10
Lattice="16.28999089631971 0.0 0.0 0.0 16.28999089631971 0.0 0.0 0.0 34.40785480372833" Properties=species:S:1:pos:R:3:initial_magmoms:R:1 pbc="T T T"
Si      -2.06742906      -0.49205574       0.90134867       0.00000000
Si      -0.49775724       0.62757225      -2.20526946       0.00000000
Si       1.36919079      -1.91842443      -0.17475759       0.00000000
Si       0.52277868       2.04338502       1.18094705       0.00000000
Si      -3.15503091       1.55874123       1.00849479       0.00000000
Si      -1.68155154      -1.33736013       3.05012040       0.00000000
Si       2.65049703       1.69435548       2.02586681       0.00000000
Si      -1.23958755       2.83890717      -2.13769240       0.00000000
Si       1.46202750       0.67434084      -3.47409423       0.00000000
Si       0.10476099       3.81767553      -0.39637871       0.00000000
