10
Lattice="16.28999089631971 0.0 0.0 0.0 16.28999089631971 0.0 0.0 0.0 34.40785480372833" Properties=species:S:1:pos:R:3:initial_magmoms:R:1 pbc="T T T"
Si      -1.35725022       1.35744570      -1.35766589       0.00000000
Si       1.35769005      -1.35742941      -1.35742504       0.00000000
Si       1.35896067       1.35588186       1.35783793       0.00000000
Si      -1.35713619      -1.35767376       1.35811320       0.00000000
Si       2.71650411      -0.00241092       2.71182218       0.00000000
Si      -0.00035838      -2.71502172      -2.71374902       0.00000000
Si      -2.71557558       0.00052128      -2.71368021       0.00000000
Si       2.71461447       2.71490769       0.00003441       0.00000000
Si       2.71523349       0.00127062      -2.71429955       0.00000000
Si       2.71495656      -2.71467963       0.00010322       0.00000000
