10
Lattice="16.28999089631971 0.0 0.0 0.0 16.28999089631971 0.0 0.0 0.0 34.40785480372833" Properties=species:S:1:pos:R:3:initial_magmoms:R:1 pbc="T T T"
Si      -1.27332414      -1.41377652      -1.42541500       0.00000000
Si       1.37065689       1.33574742      -1.41626250       0.00000000
Si      -1.28397780       1.51953120       1.39004370       0.00000000
Si       0.61541991      -2.09070747       1.34775643       0.00000000
Si       0.95869908      -0.64022958       3.16132665       0.00000000
Si       2.73715983       0.61357914       1.91909917       0.00000000
Si      -2.01178242      -2.22979149       1.73081929       0.00000000
Si      -2.75649606      -0.06079428       2.34241925       0.00000000
Si      -2.52796365       0.08027712      -2.78132609       0.00000000
Si       2.80551267      -2.57132763       0.21529007       0.00000000
