10
Lattice="16.28999089631971 0.0 0.0 0.0 16.28999089631971 0.0 0.0 0.0 34.40785480372833" Properties=species:S:1:pos:R:3:initial_magmoms:R:1 pbc="T T T"
Si      -1.26666153       0.50733576       1.88961163       0.00000000
Si       2.16787320       0.17550846       0.85981836       0.00000000
Si      -0.31856724       1.76769306      -1.52475053       0.00000000
Si      -0.58194396      -2.21043897      -0.58021998       0.00000000
Si       3.28818537      -1.54010547      -0.31761909       0.00000000
Si       1.88869518       2.54946645      -1.95092646       0.00000000
Si      -2.89126323      -2.24782452      -0.85489804       0.00000000
Si      -0.20676897       2.42273025       2.87236932       0.00000000
Si       2.24428959      -1.23828435       2.78882701       0.00000000
Si      -3.51189594       0.89964783       1.27680739       0.00000000
