10
Lattice="16.28999089631971 0.0 0.0 0.0 16.28999089631971 0.0 0.0 0.0 34.40785480372833" Properties=species:S:1:pos:R:3:initial_magmoms:R:1 pbc="T T T"
Si       1.26666153      -0.50733576      -1.88961163       0.00000000
Si      -2.24523441       0.39231207      -0.61280424       0.00000000
Si       1.05989256       1.91539449       0.98275770       0.00000000
Si       0.02256165      -1.77222168       1.62143666       0.00000000
Si       3.43453473      -0.33182730      -1.02979326       0.00000000
Si      -2.23594911       2.68498296      -1.08752967       0.00000000
Si       2.15923950       0.81798606       2.90942660       0.00000000
Si      -1.98128754      -1.38833154       2.82605633       0.00000000
Si       0.68471757      -2.71777473      -2.46983161       0.00000000
Si      -2.48098329      -0.56545848      -2.75830722       0.00000000
