10
Lattice="16.28999089631971 0.0 0.0 0.0 16.28999089631971 0.0 0.0 0.0 34.40785480372833" Properties=species:S:1:pos:R:3:initial_magmoms:R:1 pbc="T T T"
Si      -1.35863487      -1.35609363       1.35659925       0.00000000
Si       1.35754344      -1.35715248      -1.35708096       0.00000000
Si      -1.35741312       1.35744570      -1.35694333       0.00000000
Si       1.35747828       1.35793440       1.35763149       0.00000000
Si      -2.71305063      -0.00289962       2.71306087       0.00000000
Si       0.00058644      -2.71350675      -2.71443718       0.00000000
Si      -2.71378368       0.00003258      -2.71433396       0.00000000
Si       0.00175932       2.71372651      -2.71526297       0.00000000
Si      -2.71381626       2.71519723      -0.00037849       0.00000000
Si      -2.71471221      -2.71432125       0.00017204       0.00000000
