10
Lattice="16.28999089631971 0.0 0.0 0.0 16.28999089631971 0.0 0.0 0.0 34.40785480372833" Properties=species:S:1:pos:R:3:initial_magmoms:R:1 pbc="T T T"
Si      -1.35777150       1.35190873       1.36423780       0.00000000
Si       1.36187658      -1.36451313       1.36368727       0.00000000
Si      -1.36967949      -1.35098898      -1.37648012       0.00000000
Si       1.35042471       1.35681202      -1.39512919       0.00000000
Si      -2.70716994       2.70736705       0.00433539       0.00000000
Si       2.71409319       2.71442062      -0.00003441       0.00000000
Si       0.00219915       2.70989200       2.72076823       0.00000000
Si      -2.71252283      -0.00556955       2.72155961       0.00000000
Si      -2.70846988      -2.72572981       0.00289026       0.00000000
Si       2.71559187      -2.71994686       0.00498914       0.00000000
