10
Lattice="16.28999089631971 0.0 0.0 0.0 16.28999089631971 0.0 0.0 0.0 34.40785480372833" Properties=species:S:1:pos:R:3:initial_magmoms:R:1 pbc="T T T"
Si       1.35702216       1.35866588       1.35597991       0.00000000
Si      -1.35793440      -1.35717426       1.35711537       0.00000000
Si       1.35736425      -1.35725571      -1.35790675       0.00000000
Si      -1.35809730       1.35799799      -1.35797556       0.00000000
Si      -0.00052128       2.70994093       2.71691455       0.00000000
Si      -0.00017919      -2.71326789      -2.71584791       0.00000000
Si       2.71459818      -2.71471770      -0.00051612       0.00000000
Si      -2.71533123       2.71399714      -0.00141072       0.00000000
Si       0.00099369       2.71357360      -2.71584791       0.00000000
Si      -2.71365336      -0.00138216      -2.71577909       0.00000000
