10
Lattice="16.28999089631971 0.0 0.0 0.0 16.28999089631971 0.0 0.0 0.0 34.40785480372833" Properties=species:S:1:pos:R:3:initial_magmoms:R:1 pbc="T T T"
Si       1.18622151      -1.51669837      -1.36754095       0.00000000
Si       1.84104693       0.68268132       1.34135656       0.00000000
Si      -1.53834615       1.21064022      -1.36760977       0.00000000
Si       0.02984328      -0.26674875       2.78228951       0.00000000
Si      -0.91549800      -2.46859800       2.24683417       0.00000000
Si      -2.31265872       0.14950962       2.80874917       0.00000000
Si       2.56834656       2.59157610       0.08061765       0.00000000
Si       2.53518012      -0.15703560      -2.74378710       0.00000000
Si      -0.17888049       2.56240071      -2.74516341       0.00000000
Si       2.59688664      -2.85916283       0.10084948       0.00000000
