10
Lattice="16.28999089631971 0.0 0.0 0.0 16.28999089631971 0.0 0.0 0.0 34.40785480372833" Properties=species:S:1:pos:R:3:initial_magmoms:R:1 pbc="T T T"
Si       1.35738054      -1.35767376      -1.35780353       0.00000000
Si      -1.35855342       1.35708732      -1.35880135       0.00000000
Si       1.34371323       1.35425286       1.38570831       0.00000000
Si      -1.35946566      -1.35176049       1.37755364       0.00000000
Si       0.17888049      -2.56240071       2.74516341       0.00000000
Si      -2.71332756       2.71213839      -0.00454184       0.00000000
Si      -0.00017919       2.71414206      -2.71598554       0.00000000
Si      -2.71487511      -0.00013032      -2.71626080       0.00000000
Si       2.71824714       2.71318095       0.00065375       0.00000000
Si       2.71549413      -0.00006516      -2.71650165       0.00000000
