10
Lattice="16.28999089631971 0.0 0.0 0.0 16.28999089631971 0.0 0.0 0.0 34.40785480372833" Properties=species:S:1:pos:R:3:initial_magmoms:R:1 pbc="T T T"
Si      -1.27265625       1.37826432      -1.42486447       0.00000000
Si       1.45077111      -1.35516510      -1.40814224       0.00000000
Si      -1.36309833      -1.29202506       1.58668470       0.00000000
Si       1.33032285       0.32791770       2.36103391       0.00000000
Si      -0.93792933       3.36065958       1.15772174       0.00000000
Si      -2.61065169      -2.67918372      -0.00086020       0.00000000
Si      -2.60626968       0.00272043      -2.79839240       0.00000000
Si      -2.79795411       2.61504999      -0.04486787       0.00000000
Si       0.10705788      -2.70941796      -2.79385056       0.00000000
Si       0.10787238       2.72077209      -2.79216457       0.00000000
