10
Lattice="16.28999089631971 0.0 0.0 0.0 16.28999089631971 0.0 0.0 0.0 34.40785480372833" Properties=species:S:1:pos:R:3:initial_magmoms:R:1 pbc="T T T"
Si      -0.59355873       1.38144087      -1.81171220       0.00000000
Si      -2.06003340      -0.24407307       1.13336096       0.00000000
Si       0.79985529      -2.15150175      -0.56951913       0.00000000
Si       1.90102671       1.22290659       0.75349803       0.00000000
Si      -0.55768815       3.41415594      -0.55575598       0.00000000
Si       0.95571801       3.27930732       1.30725836       0.00000000
Si       1.51742979      -2.96855928       1.52616125       0.00000000
Si      -3.40438194      -1.22284143      -0.60795273       0.00000000
Si       0.89837721       0.84607002      -3.52457058       0.00000000
Si      -1.64201571      -2.01836358       2.71068672       0.00000000
