10
Lattice="16.28999089631971 0.0 0.0 0.0 16.28999089631971 0.0 0.0 0.0 34.40785480372833" Properties=species:S:1:pos:R:3:initial_magmoms:R:1 pbc="T T T"
Si      -1.35435096       1.35770289      -1.35511971       0.00000000
Si      -1.35560529      -1.35799879       1.35776912       0.00000000
Si       1.35912062       1.35704641       1.35773471       0.00000000
Si       1.36317357      -1.36311385      -1.36093464       0.00000000
Si      -0.00746118       2.71265134      -2.69757388       0.00000000
Si      -2.69928594      -0.02143799      -2.72335914       0.00000000
Si      -2.71274148       2.71361245       0.00048171       0.00000000
Si      -2.71316502       0.00018392       2.71512534       0.00000000
Si       2.71387196       2.71452469       0.00041289       0.00000000
Si       0.00161363       2.71460614       2.71491889       0.00000000
