10
Lattice="16.28999089631971 0.0 0.0 0.0 16.28999089631971 0.0 0.0 0.0 34.40785480372833" Properties=species:S:1:pos:R:3:initial_magmoms:R:1 pbc="T T T"
Si       1.37712402       1.33006221      -1.34460811       0.00000000
Si       1.34939844      -1.35545832       1.35990241       0.00000000
Si      -1.37193470      -1.35733167      -1.33808437       0.00000000
Si      -1.36307051       1.35816246       1.36090023       0.00000000
Si      -0.06919992       2.58769908      -2.60890135       0.00000000
Si       2.70716994      -2.70736705      -0.00433539       0.00000000
Si       2.70881523       2.71393029      -0.00478269       0.00000000
Si       2.70936909       0.00252495       2.71643284       0.00000000
Si      -0.00535289      -2.71293660       2.71722422       0.00000000
Si      -2.71882448      -2.71228011       0.00436980       0.00000000
