10
Lattice="16.28999089631971 0.0 0.0 0.0 16.28999089631971 0.0 0.0 0.0 34.40785480372833" Properties=species:S:1:pos:R:3:initial_magmoms:R:1 pbc="T T T"
Si      -0.29607075      -2.34054720      -0.16591477       0.00000000
Si      -0.07641639       1.41379281      -1.92900864       0.00000000
Si       1.89081288       0.42795459       1.51067771       0.00000000
Si      -1.51938459       0.14983542       1.96706375       0.00000000
Si       1.04389578      -0.30182112      -3.10644609       0.00000000
Si       0.96081678       2.59312365       2.13122372       0.00000000
Si      -1.35171162       2.56360617       2.01021122       0.00000000
Si      -3.48838947      -0.02660157       0.72222128       0.00000000
Si       0.41972814      -2.88034893       2.18569138       0.00000000
Si      -2.28915225      -2.40929100      -1.49374904       0.00000000
