10
Lattice="16.28999089631971 0.0 0.0 0.0 16.28999089631971 0.0 0.0 0.0 34.40785480372833" Properties=species:S:1:pos:R:3:initial_magmoms:R:1 pbc="T T T"
Si      -1.71782190      -1.03063572       1.26025651       0.00000000
Si       1.04060357       1.68598242       1.31448676       0.00000000
Si      -1.77506496       0.60670476      -1.48217289       0.00000000
Si       1.77738398      -1.76829579      -0.16091053       0.00000000
Si      -0.10687315       0.98717400      -3.16227497       0.00000000
Si      -0.26213121      -2.25904833       2.58530374       0.00000000
Si       2.48692751       0.42834555       2.57878001       0.00000000
Si      -2.72897478      -2.63840985      -0.07183297       0.00000000
Si       1.24754196      -2.85223239      -2.23157639       0.00000000
Si       0.94639361      -3.60927756       1.12390155       0.00000000
