10
Lattice="16.28999089631971 0.0 0.0 0.0 16.28999089631971 0.0 0.0 0.0 34.40785480372833" Properties=species:S:1:pos:R:3:initial_magmoms:R:1 pbc="T T T"
Si       1.35674523       1.35770634      -1.35780353       0.00000000
Si      -1.35855342      -1.35720135      -1.35794116       0.00000000
Si       1.35747828      -1.35646830       1.36007444       0.00000000
Si      -1.35959598       1.35910728       1.35897339       0.00000000
Si      -0.02305035      -2.69897607       2.72737454       0.00000000
Si       2.71446786       0.00001629      -2.71509093       0.00000000
Si      -0.00048870      -2.71526607      -2.71505652       0.00000000
Si      -0.00048870       2.71516833      -2.71519416       0.00000000
Si      -2.71420722      -2.71622718      -0.00013763       0.00000000
Si      -2.71572219       0.00016290      -2.71488448       0.00000000
