10
Lattice="16.28999089631971 0.0 0.0 0.0 16.28999089631971 0.0 0.0 0.0 34.40785480372833" Properties=species:S:1:pos:R:3:initial_magmoms:R:1 pbc="T T T"
Si      -2.29778595      -0.54589419      -0.35794511       0.00000000
Si       1.64843397      -1.74809619       0.32308994       0.00000000
Si       0.17124048       0.54638289       2.47702285       0.00000000
Si       0.86804523       1.19835334      -2.10906505       0.00000000
Si       2.42831772      -0.14799465       2.83627546       0.00000000
Si      -0.79122159      -1.30616478       3.55220010       0.00000000
Si       3.65560632      -1.17597510      -0.77125250       0.00000000
Si       2.70006750      -0.26801937      -2.86125558       0.00000000
Si       0.66484377      -3.87425070       0.58338550       0.00000000
Si      -2.87257860       0.10767690      -2.79065062       0.00000000
