10
Lattice="16.28999089631971 0.0 0.0 0.0 16.28999089631971 0.0 0.0 0.0 34.40785480372833" Properties=species:S:1:pos:R:3:initial_magmoms:R:1 pbc="T T T"
Si      -1.45569069       1.22841261      -1.32504723       0.00000000
Si       1.20852482      -1.35022923      -1.46140219       0.00000000
Si      -1.34688978      -1.35494844       1.34245417       0.00000000
Si       1.37193470       1.35733167       1.33808437       0.00000000
Si       0.26213121       2.25904833      -2.58530374       0.00000000
Si       2.03951519       0.49075254      -2.74621427       0.00000000
Si      -0.62872884      -2.01114874      -2.92554811       0.00000000
Si      -2.46684357      -0.37936152      -2.65713672       0.00000000
Si      -2.70528030       0.00096111       2.69805559       0.00000000
Si       0.00746118      -2.71265134       2.69757388       0.00000000
