10
Lattice="16.28999089631971 0.0 0.0 0.0 16.28999089631971 0.0 0.0 0.0 34.40785480372833" Properties=species:S:1:pos:R:3:initial_magmoms:R:1 pbc="T T T"
Si      -1.35628911      -1.35599478      -1.35718418       0.00000000
Si      -1.35682668       1.35646016       1.35704655       0.00000000
Si       1.35747828      -1.35708240       1.35690892       0.00000000
Si       1.35790182       1.35634613      -1.35773471       0.00000000
Si       0.00100998      -2.71381530       2.71371462       0.00000000
Si      -2.71515204       0.00088455       2.71340495       0.00000000
Si       2.71454931       2.71450858      -0.00017204       0.00000000
Si       2.71629234       0.00043657      -2.71333613       0.00000000
Si      -2.71480995      -2.71503705      -0.00048171       0.00000000
Si       0.00130320      -2.71487415      -2.71498771       0.00000000
