10
Lattice="16.28999089631971 0.0 0.0 0.0 16.28999089631971 0.0 0.0 0.0 34.40785480372833" Properties=species:S:1:pos:R:3:initial_magmoms:R:1 pbc="T T T"
Si       1.33304835       1.34851878      -1.37132582       0.00000000
Si      -1.37438730      -1.37686338      -1.36613023       0.00000000
Si       1.69871047      -1.00494639       1.34789406       0.00000000
Si      -1.34122086       1.37174832       1.45827452       0.00000000
Si      -0.14257008      -2.18957148       2.51607579       0.00000000
Si      -2.06852049      -0.53714646       2.71901343       0.00000000
Si       2.68695961       2.71171485       0.02690696       0.00000000
Si       2.70637240      -2.71019662      -0.00075697       0.00000000
Si       2.70016917      -0.01532889      -2.72520685       0.00000000
Si      -0.01585017       2.69724933      -2.72868204       0.00000000
