10
Lattice="16.28999089631971 0.0 0.0 0.0 16.28999089631971 0.0 0.0 0.0 34.40785480372833" Properties=species:S:1:pos:R:3:initial_magmoms:R:1 pbc="T T T"
Si      -1.16543547      -0.09203850      -2.06216711       0.00000000
Si      -0.11772783      -1.30849588       2.01612938       0.00000000
Si       2.14364087       1.14758163      -0.17768226       0.00000000
Si      -1.46367279       1.94013900       0.77517499       0.00000000
Si       0.67584508       1.09258659      -3.23034885       0.00000000
Si       0.47017927       2.51344926       2.37218206       0.00000000
Si       2.73853538       1.72797804       2.10586511       0.00000000
Si       2.03896133      -1.72998497       2.85815887       0.00000000
Si      -3.09138588       1.56038652      -1.85922947       0.00000000
Si      -0.95444739      -3.47702624       1.75772624       0.00000000
