10
Lattice="16.28999089631971 0.0 0.0 0.0 16.28999089631971 0.0 0.0 0.0 34.40785480372833" Properties=species:S:1:pos:R:3:initial_magmoms:R:1 pbc="T T T"
Si       2.21328972       0.03504793       0.67501367       0.00000000
Si      -1.05603183       1.07646601       1.78315366       0.00000000
Si      -0.01783755       1.82663680      -1.59060720       0.00000000
Si      -0.69146163      -2.29764001       0.76770849       0.00000000
Si      -2.94853887      -1.60326247       0.40845587       0.00000000
Si       1.88502993      -1.73449471       2.27346587       0.00000000
Si      -0.32055462       0.12091415       3.71921592       0.00000000
Si       3.47846886      -0.66889509      -1.20775079       0.00000000
Si      -3.29299092       0.34673917       1.75882730       0.00000000
Si      -0.43626249       3.36322363       1.79258142       0.00000000
