10
Lattice="16.28999089631971 0.0 0.0 0.0 16.28999089631971 0.0 0.0 0.0 34.40785480372833" Properties=species:S:1:pos:R:3:initial_magmoms:R:1 pbc="T T T"
Si      -0.93783159       0.57459065       2.09832979       0.00000000
Si       2.04379227       0.73083456      -0.95117127       0.00000000
Si      -0.23333796      -2.09212374      -1.12025156       0.00000000
Si      -1.99062171       0.83698672      -1.03750063       0.00000000
Si      -0.86439627       1.09013820      -3.04709251       0.00000000
Si      -2.12231007      -1.57099035       2.13504299       0.00000000
Si       1.25006202       2.11037765      -2.66323827       0.00000000
Si      -1.99194120      -3.16165998       0.25406774       0.00000000
Si      -0.86491755      -1.26161067      -3.42571675       0.00000000
Si       2.63785599      -0.97831128      -2.48772370       0.00000000
