10
Lattice="16.28999089631971 0.0 0.0 0.0 16.28999089631971 0.0 0.0 0.0 34.40785480372833" Properties=species:S:1:pos:R:3:initial_magmoms:R:1 pbc="T T T"
Si       1.34889852      -1.34873055       1.35735622       0.00000000
Si      -1.35710361      -1.35474156      -1.35532616       0.00000000
Si       1.35634508       1.35967743      -1.35539497       0.00000000
Si      -1.35435060       1.35850455       1.36182925       0.00000000
Si      -0.00039096      -2.71329498      -2.71209745       0.00000000
Si       0.01585017      -2.69724933       2.72868204       0.00000000
Si      -2.71521720      -2.71235016       0.00337197       0.00000000
Si      -2.71534752       0.00232947      -2.71268238       0.00000000
Si       2.71531887       0.00187335      -2.71282001       0.00000000
Si       2.71601934      -2.71257822       0.00347520       0.00000000
