10
Lattice="16.28999089631971 0.0 0.0 0.0 16.28999089631971 0.0 0.0 0.0 34.40785480372833" Properties=species:S:1:pos:R:3:initial_magmoms:R:1 pbc="T T T"
Si      -0.09343944      -0.80894511       2.22532925       0.00000000
Si      -0.87834051      -1.69746687      -1.46587866       0.00000000
Si       1.74720024       1.17232614      -1.24305327       0.00000000
Si      -2.40230259       1.31069340       0.86322474       0.00000000
Si       2.03645104      -0.48338946       3.06742756       0.00000000
Si      -2.28185433      -0.37238940      -2.90595141       0.00000000
Si       0.44859402       2.33797338      -2.92267364       0.00000000
Si      -0.15970716       2.39247972       3.07668328       0.00000000
Si      -1.60564014      -3.60636165      -0.20513974       0.00000000
Si      -2.02041612       0.09891288       3.43631438       0.00000000
