10
Lattice="16.28999089631971 0.0 0.0 0.0 16.28999089631971 0.0 0.0 0.0 34.40785480372833" Properties=species:S:1:pos:R:3:initial_magmoms:R:1 pbc="T T T"
Si       2.12989048       0.32555565       0.84209831       0.00000000
Si       0.09343944       0.80894511      -2.22532925       0.00000000
Si       0.11551239      -2.41766406       0.20393547       0.00000000
Si      -1.92697668       0.90785799       1.21098513       0.00000000
Si       2.04936445      -1.84435380       1.80094253       0.00000000
Si      -0.06626772       3.20142483       0.85135403       0.00000000
Si      -2.30886315       2.11963851      -1.36210451       0.00000000
Si      -0.78490107      -0.88852176      -3.69120791       0.00000000
Si      -2.03484906      -3.17076705       1.06203344       0.00000000
Si      -3.02293530      -1.25408565       2.16762725       0.00000000
