10
Lattice="16.28999089631971 0.0 0.0 0.0 16.28999089631971 0.0 0.0 0.0 34.40785480372833" Properties=species:S:1:pos:R:3:initial_magmoms:R:1 pbc="T T T"
Si      -0.89627580       0.65503719       2.00432748       0.00000000
Si      -1.74298113      -1.02021012      -1.24962517       0.00000000
Si       1.05572951       1.76689485      -1.25021010       0.00000000
Si       1.78818003      -1.72447569       0.48387793       0.00000000
Si       1.35775914       1.61578881       2.71832527       0.00000000
Si       2.32002247       0.30999870      -2.55375241       0.00000000
Si      -0.40935141      -2.41056162      -2.54105591       0.00000000
Si       0.88925481      -3.57620886      -0.86143553       0.00000000
Si       3.62234933      -0.96881517      -1.02483853       0.00000000
Si       2.35623840       3.17751111       0.08653580       0.00000000
