10
Lattice="16.28999089631971 0.0 0.0 0.0 16.28999089631971 0.0 0.0 0.0 34.40785480372833" Properties=species:S:1:pos:R:3:initial_magmoms:R:1 pbc="T T T"
Si       1.35506736       1.35957915       1.35570464       0.00000000
Si       1.35640314      -1.35775153      -1.35656484       0.00000000
Si      -1.35599263      -1.35781669       1.35787234       0.00000000
Si      -1.35882383       1.35747285      -1.35701214       0.00000000
Si       0.00369783       2.70916818       2.71103080       0.00000000
Si       2.71389771       2.71390857      -0.00051612       0.00000000
Si       2.71381626      -2.71519723       0.00037849       0.00000000
Si       0.00003258      -2.71516465      -2.71395547       0.00000000
Si      -0.00407250       2.71495113      -2.71433396       0.00000000
Si       2.71557558      -0.00147073      -2.71488448       0.00000000
