10
Lattice="16.28999089631971 0.0 0.0 0.0 16.28999089631971 0.0 0.0 0.0 34.40785480372833" Properties=species:S:1:pos:R:3:initial_magmoms:R:1 pbc="T T T"
Si       1.45362186      -1.25682237      -1.31299415       0.00000000
Si      -1.34514023      -1.35443205       1.35244966       0.00000000
Si       1.36723599       1.36363590       1.35458295       0.00000000
Si      -1.38265447       1.24776513      -1.48570103       0.00000000
Si       2.00744928       0.59124555      -2.66144940       0.00000000
Si       0.38113713       2.28056742      -2.55672628       0.00000000
Si      -2.70230642       0.00420282       2.71252410       0.00000000
Si      -2.69725652       2.72093499      -0.03782802       0.00000000
Si       0.01000206      -2.71088406       2.71324667       0.00000000
Si      -2.72470517      -2.69930187      -0.02968367       0.00000000
