10
Lattice="16.28999089631971 0.0 0.0 0.0 16.28999089631971 0.0 0.0 0.0 34.40785480372833" Properties=species:S:1:pos:R:3:initial_magmoms:R:1 pbc="T T T"
Si       1.35475133       1.35747828      -1.35732181       0.00000000
Si      -1.35750699       1.35755973       1.35718418       0.00000000
Si       1.35882383      -1.35747285       1.35701214       0.00000000
Si      -1.35912062      -1.35704641      -1.35773471       0.00000000
Si      -2.71347158       0.00065649      -2.71285442       0.00000000
Si       2.71389119       0.00210630       2.71271679       0.00000000
Si      -2.71293401       0.00306904       2.71509093       0.00000000
Si      -2.71472591      -2.71504520       0.00003441       0.00000000
Si      -2.71521461       2.71472850       0.00030967       0.00000000
Si       0.00535289       2.71293660      -2.71722422       0.00000000
