10
Lattice="16.28999089631971 0.0 0.0 0.0 16.28999089631971 0.0 0.0 0.0 34.40785480372833" Properties=species:S:1:pos:R:3:initial_magmoms:R:1 pbc="T T T"
Si       1.15310394      -2.04859782      -0.27708661       0.00000000
Si      -2.18715079      -0.88790274       0.39228417       0.00000000
Si       0.22819032       1.39027005      -1.93843640       0.00000000
Si       1.19193930       1.08237276       1.78122682       0.00000000
Si      -1.95309281      -2.02269672       2.40008685       0.00000000
Si      -1.04854658       3.34523295      -1.56383787       0.00000000
Si       3.53014074       1.10459232       1.19364356       0.00000000
Si       1.32737436      -3.18042702       1.82124318       0.00000000
Si      -1.22763069       0.52100307      -3.67858022       0.00000000
Si      -2.97443087      -2.14739667      -1.49206305       0.00000000
