10
Lattice="16.28999089631971 0.0 0.0 0.0 16.28999089631971 0.0 0.0 0.0 34.40785480372833" Properties=species:S:1:pos:R:3:initial_magmoms:R:1 pbc="T T T"
Si       1.08760185      -2.05079697      -0.10714612       0.00000000
Si      -2.17189846      -0.85209732       0.21780184       0.00000000
Si       0.63079767       0.94943007       2.05821021       0.00000000
Si      -0.17427042       1.13182920      -2.09832979       0.00000000
Si      -3.28046717       1.15773030       0.57884366       0.00000000
Si      -2.27752119      -2.01064212      -1.90440701       0.00000000
Si      -1.16225892      -0.57396186      -3.39932592       0.00000000
Si      -0.44527086      -3.37844826      -1.31654848       0.00000000
Si       3.15503091      -1.55874123      -1.00849479       0.00000000
Si       3.67780959       0.48464379       0.17245226       0.00000000
