10
Lattice="10.86 0.0 0.0 0.0 10.86 0.0 0.0 0.0 10.86" Properties=species:S:1:pos:R:3:initial_magmoms:R:1 pbc="T T T"
Si      -1.44163242       1.21993638      -1.15706784       0.00000000
Si       1.27336758      -1.49506362      -1.15706784       0.00000000
Si       1.27336758       1.21993638       1.55793216       0.00000000
Si      -0.08413242       2.57743638      -2.51456784       0.00000000
Si       2.63086758      -0.13756362      -2.51456784       0.00000000
Si       2.63086758       2.57743638       0.20043216       0.00000000
Si      -2.95714542       2.22649548       0.24877002       0.00000000
Si      -2.79913242      -0.13756362      -2.51456784       0.00000000
Si      -0.08413242      -2.85256362      -2.51456784       0.00000000
Si      -0.02877900       2.48007648       2.94623112       0.00000000
