10
Lattice="16.28999089631971 0.0 0.0 0.0 16.28999089631971 0.0 0.0 0.0 34.49183129400761" Properties=species:S:1:pos:R:3:initial_magmoms:R:1 pbc="T T T"
Si      -0.72079829      -1.90281276      -1.11071209       0.00000000
Si       1.45618102      -1.23715050       1.41205152       0.00000000
Si       1.45992772       0.98215342      -1.59722244       0.00000000
Si      -1.28694814       1.48069258       1.41045455       0.00000000
Si       0.04758309       2.23159642      -3.00762870       0.00000000
Si       2.68662988       2.66675119      -0.08151804       0.00000000
Si       0.08423885      -2.59487712       2.79174279       0.00000000
Si      -2.71572775      -2.69058087      -0.13342827       0.00000000
Si      -2.63432662       0.12162766       2.79529545       0.00000000
Si       2.99164384      -2.51909604      -0.16514008       0.00000000
