10
Lattice="16.28999089631971 0.0 0.0 0.0 16.28999089631971 0.0 0.0 0.0 34.49183129400761" Properties=species:S:1:pos:R:3:initial_magmoms:R:1 pbc="T T T"
Si      -1.35707103      -1.35671917       1.35756475       0.00000000
Si      -1.35773892       1.35744570      -1.35694389       0.00000000
Si       1.35625653       1.35907470       1.35680593       0.00000000
Si       1.35726651      -1.35766236      -1.35739229       0.00000000
Si       0.00218286       2.71336014       2.71261159       0.00000000
Si      -2.71311579       0.00006516      -2.71402575       0.00000000
Si      -0.00081450      -2.71428771      -2.71478457       0.00000000
Si       2.71454931       2.71454931       0.00034492       0.00000000
Si      -2.71480995       2.71466334       0.00020695       0.00000000
Si       0.00034209       2.71469592      -2.71502602       0.00000000
