10
Lattice="16.28999089631971 0.0 0.0 0.0 16.28999089631971 0.0 0.0 0.0 34.49183129400761" Properties=species:S:1:pos:R:3:initial_magmoms:R:1 pbc="T T T"
Si       1.35788553       1.35565869      -1.35746127       0.00000000
Si      -1.35808101      -1.35662536      -1.35739229       0.00000000
Si      -1.35726651       1.35766236       1.35739229       0.00000000
Si       1.35752715      -1.35783225       1.35739229       0.00000000
Si       2.71606428      -0.00133578      -2.70916240       0.00000000
Si      -2.71433754       0.00094319       2.71495703       0.00000000
Si       2.71485882       2.71460307      -0.00003449       0.00000000
Si      -2.71378368      -0.00304623      -2.71575035       0.00000000
Si      -2.71497285      -2.71510547      -0.00006898       0.00000000
Si      -2.71500543       2.71510806       0.00044839       0.00000000
