10
Lattice="16.28999089631971 0.0 0.0 0.0 16.28999089631971 0.0 0.0 0.0 34.49183129400761" Properties=species:S:1:pos:R:3:initial_magmoms:R:1 pbc="T T T"
Si      -0.43763085       0.72897750      -2.27384076       0.00000000
Si       1.33178895      -1.93893354      -0.68400789       0.00000000
Si       1.11672837       0.72488871       2.10534807       0.00000000
Si      -2.49782715       1.29551112       0.56742543       0.00000000
Si      -2.51056593      -0.98899848       1.37791494       0.00000000
Si       0.65011761      -1.41703452       3.05932367       0.00000000
Si      -2.33276058      -2.62847621      -0.41859310       0.00000000
Si       3.32672751      -1.89470619       0.68055870       0.00000000
Si      -0.04898403      -3.89201796      -0.08040050       0.00000000
Si       3.47017725       0.41272344       1.71828052       0.00000000
