10
Lattice="16.28999089631971 0.0 0.0 0.0 16.28999089631971 0.0 0.0 0.0 34.49183129400761" Properties=species:S:1:pos:R:3:initial_magmoms:R:1 pbc="T T T"
Si      -1.66146664      -1.10411991      -1.38164006       0.00000000
Si       1.20838243       1.67285268      -1.34059476       0.00000000
Si      -1.45957423       1.58306220       1.42620353       0.00000000
Si       1.92401842      -1.92656943      -0.18063382       0.00000000
Si      -0.96509616      -1.04361885       2.41384318       0.00000000
Si      -0.25737385      -2.42388847      -2.82564138       0.00000000
Si       2.47657522       0.29753685      -2.81725986       0.00000000
Si       2.98897717       2.49460173       0.19718991       0.00000000
Si      -1.62131179      -3.28906829       1.39236702       0.00000000
Si      -3.27510517      -2.15801286       0.04618459       0.00000000
