10
Lattice="16.28999089631971 0.0 0.0 0.0 16.28999089631971 0.0 0.0 0.0 34.49183129400761" Properties=species:S:1:pos:R:3:initial_magmoms:R:1 pbc="T T T"
Si      -0.76439196       1.08295268       1.92809445       0.00000000
Si      -0.38118600       1.67266697      -1.63263725       0.00000000
Si      -1.30065876      -1.85223557      -0.75623382       0.00000000
Si       2.35809153      -0.10008902       0.41500595       0.00000000
Si       0.51815232      -3.29491055      -0.90965358       0.00000000
Si      -1.84093290      -0.78030240       2.89352134       0.00000000
Si      -0.09842418       3.58731212      -0.18049585       0.00000000
Si       3.28222323      -0.09048281      -1.68327129       0.00000000
Si      -3.12316767      -2.10347624       0.75271565       0.00000000
Si       2.26642770      -2.23806422      -2.16443261       0.00000000
