10
Lattice="16.28999089631971 0.0 0.0 0.0 16.28999089631971 0.0 0.0 0.0 34.49183129400761" Properties=species:S:1:pos:R:3:initial_magmoms:R:1 pbc="T T T"
Si       1.35599589      -1.35578412      -1.35939281       0.00000000
Si       1.35672894       1.35757602       1.35787517       0.00000000
Si      -1.35808101      -1.35725022       1.35808212       0.00000000
Si      -1.35734796       1.35793440      -1.36239361       0.00000000
Si      -2.71345788      -2.71463076       0.00100026       0.00000000
Si       2.69606016       0.00899208      -2.73316183       0.00000000
Si       2.71456560       2.71487511      -0.00017246       0.00000000
Si       2.71420722      -0.00014661       2.71537094       0.00000000
Si      -0.00034209      -2.71469592       2.71502602       0.00000000
Si      -0.00017919       2.71479366       2.71526746       0.00000000
