10
Lattice="16.28999089631971 0.0 0.0 0.0 16.28999089631971 0.0 0.0 0.0 34.49183129400761" Properties=species:S:1:pos:R:3:initial_magmoms:R:1 pbc="T T T"
Si      -1.35690813       1.35721764       1.35739229       0.00000000
Si      -1.35672894      -1.35757602      -1.35787517       0.00000000
Si       1.35747828      -1.35772263       1.35749576       0.00000000
Si       1.35783666       1.35729909      -1.35804763       0.00000000
Si      -0.00081450      -2.71319724       2.71395677       0.00000000
Si      -2.71215468       0.00086337       2.71502602       0.00000000
Si       0.00244350       2.71536381       2.71340490       0.00000000
Si      -2.71484253       2.71469592      -0.00024144       0.00000000
Si      -2.71480995      -2.71482624       0.00020695       0.00000000
Si       2.71450044       0.00156384       2.71516399       0.00000000
