10
Lattice="16.28999089631971 0.0 0.0 0.0 16.28999089631971 0.0 0.0 0.0 34.49183129400761" Properties=species:S:1:pos:R:3:initial_magmoms:R:1 pbc="T T T"
Si       1.35762489       1.34793234      -1.36815374       0.00000000
Si       1.32825402      -1.26162792       1.47863114       0.00000000
Si      -1.36065483      -1.36314720      -1.36463558       0.00000000
Si      -1.26819279       1.37531583       1.47666511       0.00000000
Si      -0.55255680      -2.22410628       2.63662604       0.00000000
Si       2.40828102       0.54248958       2.82971142       0.00000000
Si      -2.47657522      -0.29753685       2.81725986       0.00000000
Si       0.51240195       2.19706488       3.01444977       0.00000000
Si      -2.70319518       2.70604593       0.00983018       0.00000000
Si       2.72504007       2.69091252       0.00755372       0.00000000
