10
Lattice="16.28999089631971 0.0 0.0 0.0 16.28999089631971 0.0 0.0 0.0 34.49183129400761" Properties=species:S:1:pos:R:3:initial_magmoms:R:1 pbc="T T T"
Si      -1.23000903      -0.04075758       1.94251204       0.00000000
Si      -0.60474996      -1.80268398      -1.30630986       0.00000000
Si      -0.09780516       1.80796194      -1.48401187       0.00000000
Si       2.28815856      -0.04403187       0.51434248       0.00000000
Si       1.73693754       0.92338236      -2.72544256       0.00000000
Si       0.95638590      -1.36482507      -3.02834999       0.00000000
Si       2.19603861       1.41312492       2.39908067       0.00000000
Si      -0.85227651      -2.22410628       2.64697360       0.00000000
Si      -0.10129122       1.68625935       3.13799958       0.00000000
Si      -2.93236290      -1.44730134      -1.80271657       0.00000000
