10
Lattice="16.28999089631971 0.0 0.0 0.0 16.28999089631971 0.0 0.0 0.0 34.49183129400761" Properties=species:S:1:pos:R:3:initial_magmoms:R:1 pbc="T T T"
Si      -0.54674127       0.34332804       2.22151662       0.00000000
Si      -1.71839952      -1.13169888      -1.10211810       0.00000000
Si       1.09610523       1.75110984      -1.17054993       0.00000000
Si       1.90542501      -1.71779679       0.19653456       0.00000000
Si      -0.25523172      -2.33202753      -2.52766629       0.00000000
Si       2.44936440       0.39464154      -2.54060073       0.00000000
Si      -2.10009051       2.10647619       2.15149816       0.00000000
Si       1.36725228       0.45908478       3.47577827       0.00000000
Si      -2.46786984      -2.82587517       0.47922977       0.00000000
Si      -2.97318564       0.38952648      -2.53225370       0.00000000
