10
Lattice="16.28999089631971 0.0 0.0 0.0 16.28999089631971 0.0 0.0 0.0 34.49183129400761" Properties=species:S:1:pos:R:3:initial_magmoms:R:1 pbc="T T T"
Si       1.91399355       0.11575674       1.25426165       0.00000000
Si       0.54674127      -0.34332804      -2.22151662       0.00000000
Si      -1.55334924       1.76314815      -0.07001846       0.00000000
Si      -0.29375757      -0.95912262       2.44557568       0.00000000
Si      -3.00723174      -0.23203476      -0.05922251       0.00000000
Si      -2.67388947      -0.72449775       2.30229653       0.00000000
Si       2.45078163       2.42071029       1.50229255       0.00000000
Si       2.45216628      -2.06112483      -2.02498206       0.00000000
Si      -1.17165825      -1.47502692      -3.32363472       0.00000000
Si       1.64284650       1.40778180      -3.39206655       0.00000000
