10
Lattice="16.28999089631971 0.0 0.0 0.0 16.28999089631971 0.0 0.0 0.0 34.49183129400761" Properties=species:S:1:pos:R:3:initial_magmoms:R:1 pbc="T T T"
Si      -1.35746199       1.35726651       1.35763373       0.00000000
Si       1.35796698       1.35752715      -1.35721983       0.00000000
Si       1.35759231      -1.35791811       1.35725432       0.00000000
Si      -1.35798327      -1.35765747      -1.35759924       0.00000000
Si       0.00192222      -2.71485882       2.71361185       0.00000000
Si       2.71520091       2.71422351       0.00044839       0.00000000
Si      -2.71529865       2.71472850      -0.00010348       0.00000000
Si       2.71508688      -2.71510317       0.00003449       0.00000000
Si      -0.00001629       2.71505430       2.71537094       0.00000000
Si      -0.00187335       2.71241532      -2.71819927       0.00000000
