10
Lattice="16.28999089631971 0.0 0.0 0.0 16.28999089631971 0.0 0.0 0.0 34.49183129400761" Properties=species:S:1:pos:R:3:initial_magmoms:R:1 pbc="T T T"
Si       0.38597526       2.31882448      -0.00472538       0.00000000
Si      -2.17633748      -0.35670865       0.82118198       0.00000000
Si       0.14214654      -1.05264255      -2.10621036       0.00000000
Si       1.43615898      -1.14862323       1.50574174       0.00000000
Si      -2.12937016      -2.58056310       1.63760408       0.00000000
Si       2.41122951      -0.90886701      -2.71933750       0.00000000
Si       3.63861585      -0.68883798       0.86319305       0.00000000
Si      -0.90778143       3.27486830      -1.74280423       0.00000000
Si      -2.46400976       0.83332309       2.82208872       0.00000000
Si       2.57479740       2.77246841      -0.74936995       0.00000000
