10
Lattice="16.28999089631971 0.0 0.0 0.0 16.28999089631971 0.0 0.0 0.0 34.49183129400761" Properties=species:S:1:pos:R:3:initial_magmoms:R:1 pbc="T T T"
Si       0.13431105       2.32562556      -0.37544379       0.00000000
Si       2.12830479      -0.47692233       1.06517733       0.00000000
Si      -2.24018451      -0.37146087       0.89078653       0.00000000
Si      -0.09018144      -1.52111133      -2.00466636       0.00000000
Si      -1.90371456      -2.41484589       1.98869663       0.00000000
Si      -0.13698261       3.21843159       1.79640456       0.00000000
Si      -2.58137856       1.15820271      -2.45830317       0.00000000
Si      -1.87062957       3.09731544      -1.22404679       0.00000000
Si       1.85122818      -2.61048879       2.12300789       0.00000000
Si      -3.72283841      -0.38952648      -1.01609543       0.00000000
