10
Lattice="16.28999089631971 0.0 0.0 0.0 16.28999089631971 0.0 0.0 0.0 34.49183129400761" Properties=species:S:1:pos:R:3:initial_magmoms:R:1 pbc="T T T"
Si       1.72889028       0.00482184      -1.60035288       0.00000000
Si      -0.41695884      -1.52598204       1.79978476       0.00000000
Si      -1.92919212       0.03741813      -1.44758848       0.00000000
Si       0.37471887       2.33127819       0.58394703       0.00000000
Si      -1.31289255       2.11152609      -2.49579582       0.00000000
Si       0.63988749       1.19259090      -3.37906312       0.00000000
Si       3.46858083       1.12207149      -0.51116923       0.00000000
Si      -1.95339906      -0.29385531       3.15652170       0.00000000
Si      -1.35032697       3.45186729      -0.53738303       0.00000000
Si      -1.02029157      -3.60877257       0.71970695       0.00000000
