10
Lattice="16.28999089631971 0.0 0.0 0.0 16.28999089631971 0.0 0.0 0.0 34.49183129400761" Properties=species:S:1:pos:R:3:initial_magmoms:R:1 pbc="T T T"
Si       1.95278004      -0.91893519      -0.88326731       0.00000000
Si      -1.26482076       1.12031217      -1.62411777       0.00000000
Si      -0.03743442       1.34034120       1.95841278       0.00000000
Si      -0.61629957      -2.07410796       1.04820734       0.00000000
Si       1.68761142       0.21975210       3.07974285       0.00000000
Si       1.31289255      -2.11152609       2.49579582       0.00000000
Si      -2.23989129       0.88055595       2.60096147       0.00000000
Si       1.00046664      -2.57504175      -2.35534500       0.00000000
Si      -2.46040902      -1.45362186       2.27628968       0.00000000
Si      -3.53390373       0.97653663      -1.01099063       0.00000000
