10
Lattice="16.28999089631971 0.0 0.0 0.0 16.28999089631971 0.0 0.0 0.0 34.49183129400761" Properties=species:S:1:pos:R:3:initial_magmoms:R:1 pbc="T T T"
Si       0.09891288      -1.43185842      -1.94095991       0.00000000
Si       1.99917396       1.24032060      -0.73681491       0.00000000
Si      -2.21449518       1.17046908      -0.00734676       0.00000000
Si       0.42733557      -1.41827256       2.21441130       0.00000000
Si       1.11627225      -3.34404378       0.83028783       0.00000000
Si       1.28334249       2.06501814      -2.84474987       0.00000000
Si      -2.15236512      -2.02597101      -2.32823441       0.00000000
Si       0.48812985       0.00423540      -3.80976286       0.00000000
Si      -3.59042188      -0.30915162      -1.40930252       0.00000000
Si       2.78383068       2.45726505       1.08952858       0.00000000
