10
Lattice="16.28999089631971 0.0 0.0 0.0 16.28999089631971 0.0 0.0 0.0 34.49183129400761" Properties=species:S:1:pos:R:3:initial_magmoms:R:1 pbc="T T T"
Si       0.87073308       1.67516586      -1.32445257       0.00000000
Si      -1.79398512      -0.97474473      -1.20855995       0.00000000
Si       1.70979840      -1.66969242       0.13203480       0.00000000
Si      -0.51135939       1.56335130       1.78281477       0.00000000
Si       2.28428154       0.37755333      -2.59944383       0.00000000
Si      -0.44072595      -2.33121303      -2.57861075       0.00000000
Si       2.51838513       2.72171691       0.02328200       0.00000000
Si      -0.98604999       0.03818376       3.68579915       0.00000000
Si       1.75643667       2.53218276       2.33268385       0.00000000
Si       3.58959924      -0.93799449      -1.13692038       0.00000000
