10
Lattice="16.28999089631971 0.0 0.0 0.0 16.28999089631971 0.0 0.0 0.0 34.49183129400761" Properties=species:S:1:pos:R:3:initial_magmoms:R:1 pbc="T T T"
Si      -2.05441335      -0.34313256       0.99484845       0.00000000
Si       0.26129160       2.17605078      -0.74633466       0.00000000
Si       1.03402404      -1.81441278      -1.02095878       0.00000000
Si       1.95335019       0.15631884       1.32652208       0.00000000
Si       2.54009970       1.94885415      -0.21471177       0.00000000
Si      -0.98135847       3.00330585       1.11315549       0.00000000
Si       2.45521251      -2.13284970       0.91444794       0.00000000
Si      -1.93241754       1.39302306       2.61361998       0.00000000
Si      -2.02730679      -2.41145757       2.07068376       0.00000000
Si      -3.71781783       0.06616998      -0.73233097       0.00000000
