10
Lattice="16.28999089631971 0.0 0.0 0.0 16.28999089631971 0.0 0.0 0.0 34.49183129400761" Properties=species:S:1:pos:R:3:initial_magmoms:R:1 pbc="T T T"
Si       1.35840355      -1.35744570       1.36304895       0.00000000
Si      -1.36015792       1.35803214       1.36232462       0.00000000
Si       1.35780082       1.35237951      -1.39020783       0.00000000
Si      -1.36771884      -1.35716877      -1.38135723       0.00000000
Si      -2.71547199       2.71384884       0.00727778       0.00000000
Si       2.71451347       2.71511946      -0.00034492       0.00000000
Si      -2.71509732      -2.71623370       0.00348368       0.00000000
Si       2.71500217      -2.71821945       0.00393207       0.00000000
Si       2.71378042      -0.00006516       2.72013081       0.00000000
Si      -0.00098555       2.71463076       2.71992386       0.00000000
