10
Lattice="16.28999089631971 0.0 0.0 0.0 16.28999089631971 0.0 0.0 0.0 34.49183129400761" Properties=species:S:1:pos:R:3:initial_magmoms:R:1 pbc="T T T"
Si       1.35723393      -1.35700587       1.35694389       0.00000000
Si      -1.35723393      -1.35669636      -1.35766822       0.00000000
Si       1.35544203       1.35837447      -1.35780619       0.00000000
Si      -1.35799956       1.35777821       1.35690940       0.00000000
Si       0.00053757       2.71427468      -2.70964529       0.00000000
Si       2.71438641      -2.71409319       0.00010348       0.00000000
Si       0.00197109      -2.71433754       2.71443966       0.00000000
Si      -2.71520091      -2.71422351      -0.00044839       0.00000000
Si       2.71554300       0.00030951       2.71392228       0.00000000
Si      -0.00030951       2.71466401       2.71485356       0.00000000
