10
Lattice="16.28999089631971 0.0 0.0 0.0 16.28999089631971 0.0 0.0 0.0 34.49183129400761" Properties=species:S:1:pos:R:3:initial_magmoms:R:1 pbc="T T T"
Si      -1.41354846       1.29761253       1.27499126       0.00000000
Si       1.34438112       1.36790388      -1.33942203       0.00000000
Si      -1.36611198      -1.34998488      -1.34125010       0.00000000
Si       1.30531770      -1.31554782       1.46252345       0.00000000
Si       2.02847967       0.56394351       2.69781458       0.00000000
Si      -0.57448314      -2.04724575       2.73147863       0.00000000
Si      -2.28428154      -0.37755333       2.59944383       0.00000000
Si       0.23410359       2.34416358       2.62272583       0.00000000
Si       2.70295083       0.01137042      -2.69688330       0.00000000
Si      -0.01187541      -2.70251100      -2.69788357       0.00000000
