10
Lattice="16.28999089631971 0.0 0.0 0.0 16.28999089631971 0.0 0.0 0.0 34.49183129400761" Properties=species:S:1:pos:R:3:initial_magmoms:R:1 pbc="T T T"
Si       0.76194846       0.18953415      -2.30940185       0.00000000
Si       0.39755745       2.41150059       0.37647855       0.00000000
Si      -2.26779606      -0.96883146      -0.54986908       0.00000000
Si       2.00104731      -1.93111434       0.08595369       0.00000000
Si      -0.13932837      -0.35298801       2.90435179       0.00000000
Si       2.55632454      -1.59068592      -2.23431310       0.00000000
Si      -0.88570359      -0.85701690      -3.65713642       0.00000000
Si      -1.75643667      -2.53218276      -2.33268385       0.00000000
Si      -2.74248666      -2.49399900       1.35311530       0.00000000
Si      -0.97753032      -2.58980049       2.91728623       0.00000000
