10
Lattice="16.28999089631971 0.0 0.0 0.0 16.28999089631971 0.0 0.0 0.0 34.49183129400761" Properties=species:S:1:pos:R:3:initial_magmoms:R:1 pbc="T T T"
Si      -1.38261375      -1.38877137      -1.27350811       0.00000000
Si       2.00972988      -0.95842215       0.75944157       0.00000000
Si       0.20966859       1.67732170      -1.68020152       0.00000000
Si      -1.76327847       0.61915032       1.77253620       0.00000000
Si      -2.09622978       2.17142998      -1.57086235       0.00000000
Si       0.76290957      -1.06109802       3.21798618       0.00000000
Si       1.42058574      -3.20921145       1.06521182       0.00000000
Si       2.20688775       2.74987322      -1.06017601       0.00000000
Si       3.36228858      -1.05094935      -1.19548754       0.00000000
Si      -3.11202531       0.02384856      -2.05202367       0.00000000
