10
Lattice="16.28999089631971 0.0 0.0 0.0 16.28999089631971 0.0 0.0 0.0 34.49183129400761" Properties=species:S:1:pos:R:3:initial_magmoms:R:1 pbc="T T T"
Si       1.29430566      -1.37002158       1.53699135       0.00000000
Si       1.08967068       1.84472847      -1.25046897       0.00000000
Si      -1.41891506       1.33638273       1.54233414       0.00000000
Si      -1.18406146      -1.54505763      -1.66381931       0.00000000
Si      -2.63128202       2.64598470      -0.05736340       0.00000000
Si      -2.72341826      -2.59511103       0.08597094       0.00000000
Si       2.54236401      -2.89351125       0.05386937       0.00000000
Si      -0.72094816       3.58896393      -1.36767228       0.00000000
Si       2.69382843       2.84211630       0.11597195       0.00000000
Si       2.65101831      -0.00728163       2.92685427       0.00000000
