10
Lattice="16.28999089631971 0.0 0.0 0.0 16.28999089631971 0.0 0.0 0.0 34.49183129400761" Properties=species:S:1:pos:R:3:initial_magmoms:R:1 pbc="T T T"
Si      -1.35705963      -1.35692442       1.35680593       0.00000000
Si       1.35707103      -1.35721764      -1.35715084       0.00000000
Si      -1.35769494       1.35747828      -1.35735780       0.00000000
Si       1.35972630       1.35847197       1.35766822       0.00000000
Si      -0.00128691      -2.71238274       2.71592281       0.00000000
Si       0.00169416      -2.71459818      -2.71423271       0.00000000
Si      -0.00074934       2.71441899      -2.71468110       0.00000000
Si       2.71699281      -0.00130320       2.71240464       0.00000000
Si       2.71480995      -2.71466334      -0.00020695       0.00000000
Si       2.71497285       2.71482624       0.00003449       0.00000000
