10
Lattice="16.28999089631971 0.0 0.0 0.0 16.28999089631971 0.0 0.0 0.0 34.49183129400761" Properties=species:S:1:pos:R:3:initial_magmoms:R:1 pbc="T T T"
Si      -0.04338027      -2.34342143       0.15390264       0.00000000
Si      -1.68508647       1.35729909       0.96659962       0.00000000
Si       1.41643179       0.70246715       1.77257069       0.00000000
Si       0.48615876       0.26499595      -2.31295452       0.00000000
Si      -0.51108246       1.39629735       3.07708697       0.00000000
Si       2.12783238      -2.75521634      -0.81466302       0.00000000
Si       2.44278324      -1.01857202      -2.43681475       0.00000000
Si       0.66409443       3.52603566      -0.71198078       0.00000000
Si      -1.95307326      -2.90008331      -1.18927901       0.00000000
Si       2.06488782       2.90141190       1.11001674       0.00000000
