10
Lattice="16.28999089631971 0.0 0.0 0.0 16.28999089631971 0.0 0.0 0.0 34.49183129400761" Properties=species:S:1:pos:R:3:initial_magmoms:R:1 pbc="T T T"
Si       1.43936811      -1.22419350       1.36132436       0.00000000
Si       1.35884664       1.34423451      -1.35480540       0.00000000
Si      -1.35459495      -1.37226960      -1.35408107       0.00000000
Si      -1.34728074       1.35138582       1.49070329       0.00000000
Si      -0.80563824      -0.03743442       3.47526090       0.00000000
Si      -0.05975172      -2.30925411       2.79960004       0.00000000
Si      -2.70788670       2.69434971       0.00375961       0.00000000
Si       0.00524538       2.70060507      -2.71495703       0.00000000
Si      -2.71050939      -0.01482390      -2.71361185       0.00000000
Si       2.72282463       2.70291825       0.02390285       0.00000000
