10
Lattice="16.28999089631971 0.0 0.0 0.0 16.28999089631971 0.0 0.0 0.0 34.49183129400761" Properties=species:S:1:pos:R:3:initial_magmoms:R:1 pbc="T T T"
Si       0.76295844      -1.37207412       1.79564574       0.00000000
Si      -1.81043802       0.04106709      -1.64526127       0.00000000
Si       2.46563226       0.91261467      -0.19225758       0.00000000
Si       1.12987440       2.34409842      -1.63905274       0.00000000
Si      -0.31131819       1.12612770      -3.08353695       0.00000000
Si       0.65010132      -2.82846039      -1.57227652       0.00000000
Si      -1.88128323       2.64919383       1.31917532       0.00000000
Si       2.96011033      -1.71406638       0.79538207       0.00000000
Si      -2.55632454       2.31288678      -0.96960041       0.00000000
Si       0.78017697       1.80573021       3.09767861       0.00000000
