10
Lattice="16.28999089631971 0.0 0.0 0.0 16.28999089631971 0.0 0.0 0.0 34.49183129400761" Properties=species:S:1:pos:R:3:initial_magmoms:R:1 pbc="T T T"
Si      -2.11048353       0.66399669      -0.70618615       0.00000000
Si      -0.63526113      -2.24192754      -0.21850587       0.00000000
Si       0.57901176       0.11271051       2.30074440       0.00000000
Si       0.99436996       0.63939879      -2.12404265       0.00000000
Si      -1.28993994       0.71952930      -2.93066907       0.00000000
Si       2.90001815       0.40602825       1.96020636       0.00000000
Si       0.66835656      -3.20440590       1.45483177       0.00000000
Si      -2.34597177       2.83931442       0.08295290       0.00000000
Si      -0.13652649      -1.96571430       3.31887485       0.00000000
Si      -3.93079329      -0.65707344      -0.11647898       0.00000000
