10
Lattice="16.28999089631971 0.0 0.0 0.0 16.28999089631971 0.0 0.0 0.0 34.49183129400761" Properties=species:S:1:pos:R:3:initial_magmoms:R:1 pbc="T T T"
Si      -1.44985887       1.27239561      -1.36527712       0.00000000
Si      -1.36995642      -1.34439741       1.38405794       0.00000000
Si       1.34425080       1.37121075       1.38471328       0.00000000
Si       1.49134950      -1.40444235      -1.60267763       0.00000000
Si      -0.03412755       2.38382973      -2.84655521       0.00000000
Si       2.68011225       2.73202848       0.00695356       0.00000000
Si       2.70371646      -2.71404432      -0.00298010       0.00000000
Si      -2.73645936      -2.68947900       0.00033112       0.00000000
Si       2.69926259       0.01451439       2.74389915       0.00000000
Si      -2.71805166       2.72618037       0.02624830       0.00000000
