10
Lattice="16.28999089631971 0.0 0.0 0.0 16.28999089631971 0.0 0.0 0.0 34.49183129400761" Properties=species:S:1:pos:R:3:initial_magmoms:R:1 pbc="T T T"
Si       1.45541376      -1.86468372      -0.21923020       0.00000000
Si      -1.20787092      -0.00488700      -2.05243757       0.00000000
Si       0.83981466       2.26587384       0.23416517       0.00000000
Si      -0.89725320      -0.26539668       2.28584392       0.00000000
Si      -0.78110550      -3.06188469       0.99719389       0.00000000
Si       0.67192992       0.72681093      -3.32139275       0.00000000
Si       1.39509189       2.60630226      -2.08610161       0.00000000
Si       3.27326373      -1.33955928       1.23346307       0.00000000
Si      -1.45614681      -3.39819174      -1.29158184       0.00000000
Si       2.61498483       2.17142442       1.98807577       0.00000000
