10
Lattice="16.28999089631971 0.0 0.0 0.0 16.28999089631971 0.0 0.0 0.0 34.49183129400761" Properties=species:S:1:pos:R:3:initial_magmoms:R:1 pbc="T T T"
Si      -2.35450773       0.06952572       0.10582100       0.00000000
Si       0.73971426       2.07109431      -0.85388025       0.00000000
Si       0.66117852      -1.87535367      -1.33383435       0.00000000
Si       0.66709179      -0.25228323       2.32257774       0.00000000
Si      -0.26029791       1.98518085      -2.99634155       0.00000000
Si       3.07409309       1.72410102      -1.00226419       0.00000000
Si      -2.85637005       2.35869426       0.51789514       0.00000000
Si       2.98218491      -1.58203593      -1.67437239       0.00000000
Si       3.00841181      -0.54361359       2.32564752       0.00000000
Si      -3.09648465      -1.44827874       1.81889325       0.00000000
