10
Lattice="16.28999089631971 0.0 0.0 0.0 16.28999089631971 0.0 0.0 0.0 34.49183129400761" Properties=species:S:1:pos:R:3:initial_magmoms:R:1 pbc="T T T"
Si       1.35501179      -1.35669636       1.35918586       0.00000000
Si       1.33586145       1.36081773      -1.37775973       0.00000000
Si      -1.35827649       1.35827649       1.36080698       0.00000000
Si      -1.34425080      -1.37121075      -1.38471328       0.00000000
Si      -2.71397916       2.71119357       0.00155213       0.00000000
Si       2.71388861      -2.71508688      -0.00117272       0.00000000
Si      -2.71420722      -2.71560816      -0.00065535       0.00000000
Si       2.71402056       0.00021177       2.71685409       0.00000000
Si      -0.00115659      -2.71450044       2.71681959       0.00000000
Si       2.71835370       2.71321353      -0.00289732       0.00000000
