10
Lattice="16.28999089631971 0.0 0.0 0.0 16.28999089631971 0.0 0.0 0.0 34.49183129400761" Properties=species:S:1:pos:R:3:initial_magmoms:R:1 pbc="T T T"
Si      -1.33586145      -1.36081773       1.37775973       0.00000000
Si       1.38249225       1.35239580       1.37486241       0.00000000
Si       1.35837001      -1.33788141      -1.43562325       0.00000000
Si      -1.41747435       1.25669205      -1.55030866       0.00000000
Si       0.57745511       2.04446016      -2.52759247       0.00000000
Si      -2.66844861       2.69517612       0.01563171       0.00000000
Si       2.40426458       0.45183573      -2.92825261       0.00000000
Si      -2.68011225      -2.73202848      -0.00695356       0.00000000
Si      -2.69413794      -0.00254124       2.73856671       0.00000000
Si       2.73713444      -2.70124038       0.00865056       0.00000000
