10
Lattice="16.28999089631971 0.0 0.0 0.0 16.28999089631971 0.0 0.0 0.0 34.49183129400761" Properties=species:S:1:pos:R:3:initial_magmoms:R:1 pbc="T T T"
Si       1.22344416       1.39227372       1.40588783       0.00000000
Si      -2.27880810       0.22719663      -0.53162289       0.00000000
Si       1.26700362       0.04877226      -2.01353076       0.00000000
Si      -0.58674951      -1.79253531       1.54123385       0.00000000
Si      -2.54009970      -1.94885415       0.21471177       0.00000000
Si       3.15072450      -0.01076769       1.42033991       0.00000000
Si       2.00932263      -2.16604872      -1.97300284       0.00000000
Si       3.00933480      -2.08013526       0.16945846       0.00000000
Si      -0.12911454       1.48480092       3.36081694       0.00000000
Si      -2.37237786       0.76536936      -2.82857319       0.00000000
