10
Lattice="16.28999089631971 0.0 0.0 0.0 16.28999089631971 0.0 0.0 0.0 34.49183129400761" Properties=species:S:1:pos:R:3:initial_magmoms:R:1 pbc="T T T"
Si      -0.38618703      -1.00292643       2.08606712       0.00000000
Si       1.86176781      -1.20580209      -0.80169408       0.00000000
Si      -1.82066814      -0.66678228      -1.42099526       0.00000000
Si       0.55767186       2.20030659       0.91493083       0.00000000
Si       1.94142591      -1.35830907       2.58247384       0.00000000
Si      -1.46926026       2.51067996       2.09844970       0.00000000
Si       1.05451686      -3.51570780      -0.46488116       0.00000000
Si       3.50256177      -0.92045016       0.86043370       0.00000000
Si      -3.63421266       0.71791659      -0.73281386       0.00000000
Si      -1.72856448       0.48454605       3.35143515       0.00000000
