10
Lattice="16.28999089631971 0.0 0.0 0.0 16.28999089631971 0.0 0.0 0.0 34.49183129400761" Properties=species:S:1:pos:R:3:initial_magmoms:R:1 pbc="T T T"
Si       1.24677014      -1.43974278      -1.39367771       0.00000000
Si      -1.32194199      -1.42877961       1.39316034       0.00000000
Si      -1.47967806       1.28036142      -1.38874538       0.00000000
Si       1.62701132       1.24274781       1.26426429       0.00000000
Si      -2.09658036       0.07351677       3.13496430       0.00000000
Si       2.58922904      -0.08218305      -2.76769507       0.00000000
Si      -0.12772209       2.63588490      -2.76897127       0.00000000
Si      -2.76313458      -2.64675033      -0.05132387       0.00000000
Si       2.68177253      -2.77047288       0.07315722       0.00000000
Si       2.73355844       2.77089642      -0.06474120       0.00000000
