10
Lattice="16.28999089631971 0.0 0.0 0.0 16.28999089631971 0.0 0.0 0.0 34.49183129400761" Properties=species:S:1:pos:R:3:initial_magmoms:R:1 pbc="T T T"
Si       1.31831875      -1.23872418       1.46686942       0.00000000
Si      -1.21747129      -1.58537538      -1.30010132       0.00000000
Si       1.56361357       1.20034740      -1.41630437       0.00000000
Si      -1.16855242       1.65593130       1.44341496       0.00000000
Si       2.02906774       0.70038855       2.70112580       0.00000000
Si      -2.49745804      -0.19427454      -2.76393546       0.00000000
Si       0.19538552       2.52111112      -2.77459344       0.00000000
Si       2.37677779       3.01843016      -0.12958588       0.00000000
Si       2.85573637      -2.62371627       0.05187574       0.00000000
Si      -3.17753296      -2.35716300      -0.09461115       0.00000000
