10
Lattice="16.28999089631971 0.0 0.0 0.0 16.28999089631971 0.0 0.0 0.0 34.49183129400761" Properties=species:S:1:pos:R:3:initial_magmoms:R:1 pbc="T T T"
Si      -0.87412140       0.96880444      -1.94299493       0.00000000
Si      -1.07104795      -2.09028393       0.05111692       0.00000000
Si       2.26908297       0.14377554      -0.61312714       0.00000000
Si      -0.14214654       1.05264255       2.10621036       0.00000000
Si       0.53543601       0.02265939      -3.63357849       0.00000000
Si       2.68343541       2.52173177      -0.61492071       0.00000000
Si       0.16588107      -3.44611692      -1.51874516       0.00000000
Si      -3.28591196      -1.65232728      -0.91603457       0.00000000
Si      -0.49394538       3.28842062      -1.83538035       0.00000000
Si      -2.31848402       0.69593391       2.92739234       0.00000000
