10
Lattice="16.28999089631971 0.0 0.0 0.0 16.28999089631971 0.0 0.0 0.0 34.49183129400761" Properties=species:S:1:pos:R:3:initial_magmoms:R:1 pbc="T T T"
Si       1.07104795       2.09028393      -0.05111692       0.00000000
Si       0.07678780      -0.79309494       2.23810720       0.00000000
Si       1.23692902      -1.35583299      -1.56986209       0.00000000
Si      -2.21486400       0.43795665      -0.96715149       0.00000000
Si      -2.38022379      -1.37948607      -2.40625497       0.00000000
Si       0.19692655       3.05908837      -1.99411185       0.00000000
Si      -0.24572488      -1.37389860      -3.47674405       0.00000000
Si       1.57339897      -3.39921801      -0.47195199       0.00000000
Si       0.92890141       3.14292648       2.05509344       0.00000000
Si      -1.89991314       2.17460097      -2.58930322       0.00000000
