10
Lattice="10.86 0.0 0.0 0.0 10.86 0.0 0.0 0.0 10.86" Properties=species:S:1:pos:R:3:initial_magmoms:R:1 pbc="T T T"
Si      -1.26590676       1.38930894      -1.42439760       0.00000000
Si       1.44909324       1.38930894       1.29060240       0.00000000
Si       1.44909324      -1.32569106      -1.42439760       0.00000000
Si      -2.62144110       2.72608806      -0.19365552       0.00000000
Si      -2.62340676       0.03180894      -2.78189760       0.00000000
Si      -2.60962542      -2.80117410      -0.07779018       0.00000000
Si       0.29775948       2.73138774       2.69925300       0.00000000
Si       2.80659324       0.03180894       2.64810240       0.00000000
Si       0.09159324      -2.68319106      -2.78189760       0.00000000
Si       2.80659324      -2.68319106      -0.06689760       0.00000000
