10
Lattice="10.86 0.0 0.0 0.0 10.86 0.0 0.0 0.0 10.86" Properties=species:S:1:pos:R:3:initial_magmoms:R:1 pbc="T T T"
Si       1.35750000       1.35750000       1.35750000       0.00000000
Si      -1.35750000      -1.35750000       1.35750000       0.00000000
Si      -1.35750000       1.35750000      -1.35750000       0.00000000
Si       1.35750000      -1.35750000      -1.35750000       0.00000000
Si      -2.43651702      -2.64420366      -0.37453968       0.00000000
Si       0.07878930      -2.55787752       2.56210206       0.00000000
Si      -2.49871224       2.75761464      -0.16305204       0.00000000
Si      -0.04730616       2.84306112      -2.51085372       0.00000000
Si      -0.08261202      -2.82324162      -2.56541436       0.00000000
Si      -2.71500000       0.00000000       2.71500000       0.00000000
