10
Lattice="10.86 0.0 0.0 0.0 10.86 0.0 0.0 0.0 10.86" Properties=species:S:1:pos:R:3:initial_magmoms:R:1 pbc="T T T"
Si      -1.43800518       1.16417028      -1.20847908       0.00000000
Si       1.26088944       0.77464380       1.79137872       0.00000000
Si       1.27699482      -1.55082972      -1.20847908       0.00000000
Si      -1.43800518      -1.55082972       1.50652092       0.00000000
Si       2.55188280       2.41342866       0.29860656       0.00000000
Si      -0.08050518       2.52167028      -2.56597908       0.00000000
Si       0.19797780       2.59246662       2.48948124       0.00000000
Si       2.63449482      -0.19332972      -2.56597908       0.00000000
Si      -2.79550518       2.52167028       0.14902092       0.00000000
Si      -2.79550518      -0.19332972      -2.56597908       0.00000000
