10
Lattice="16.290000149 0.0 0.0 0.0 16.290000149 0.0 0.0 0.0 29.1751946751" Properties=species:S:1:pos:R:3:initial_magmoms:R:1 pbc="T T T"
Si      -1.37013562       1.38715867       1.31107490       0.00000000
Si      -1.36028017      -1.34594497      -1.36755808       0.00000000
Si       1.35378046       1.34721559      -1.37456012       0.00000000
Si       1.34742736      -1.33366231       1.40732387       0.00000000
Si       0.01304829       2.73745308       2.65141252       0.00000000
Si       2.67116906      -2.72797881       0.04244991       0.00000000
Si      -2.69544116      -2.70998813       0.00172134       0.00000000
Si      -0.06569757      -2.61750329       2.78900273       0.00000000
Si      -0.01003464      -2.69566760      -2.74068861       0.00000000
Si       2.72782568       2.71127504      -0.04288754       0.00000000
