10
Lattice="16.290000149 0.0 0.0 0.0 16.290000149 0.0 0.0 0.0 29.1751946751" Properties=species:S:1:pos:R:3:initial_magmoms:R:1 pbc="T T T"
Si       1.25763688       1.36894645      -1.42639569       0.00000000
Si       1.37485972      -1.26436465       1.41762271       0.00000000
Si      -0.81085105      -1.85943836      -1.18016434       0.00000000
Si      -1.42695514       1.37593486       1.29325469       0.00000000
Si      -2.68607441      -2.65624742       0.01948903       0.00000000
Si      -0.05269815      -2.65496051       2.69923941       0.00000000
Si       2.66274713      -2.71295291       0.08922066       0.00000000
Si       2.64688067       2.74721079      -0.08451179       0.00000000
Si      -0.08355141       2.74499535       2.65713961       0.00000000
Si      -0.19463292       2.78565519      -2.64408079       0.00000000
