10
Lattice="16.290000149 0.0 0.0 0.0 16.290000149 0.0 0.0 0.0 29.1751946751" Properties=species:S:1:pos:R:3:initial_magmoms:R:1 pbc="T T T"
Si       1.34699731       1.32936175      -1.37983791       0.00000000
Si      -1.33104614      -1.35953083      -1.38122957       0.00000000
Si      -1.35408020       1.38882025       1.33117661       0.00000000
Si       1.36936348      -1.34690608       1.36560334       0.00000000
Si      -2.62595454      -2.67260258       0.09096826       0.00000000
Si       2.70887390       2.69768918      -0.01633811       0.00000000
Si      -2.69507301       0.03634299       2.71699835       0.00000000
Si      -0.03815118       2.66859524      -2.75216613       0.00000000
Si       0.00992713       2.71937117       2.71043394       0.00000000
Si       2.72967623       0.00711873       2.71898227       0.00000000
