10
Lattice="16.290000149 0.0 0.0 0.0 16.290000149 0.0 0.0 0.0 29.1751946751" Properties=species:S:1:pos:R:3:initial_magmoms:R:1 pbc="T T T"
Si      -1.31754987       0.25117551       1.91479720       0.00000000
Si       2.21008061      -0.08216676       0.80964083       0.00000000
Si      -1.29412322      -0.15882750      -2.02493356       0.00000000
Si      -0.54729513       2.37908936       0.73751975       0.00000000
Si      -0.48133692      -1.99337474       1.68247513       0.00000000
H        2.05153004       0.71302960       2.08588054       0.00000000
H       -2.43340022       0.80536132      -1.73490295       0.00000000
H        0.21970323      -1.63333315      -2.65252117       0.00000000
H        0.64951489       2.74243782       1.62756741       0.00000000
H        0.76463632      -1.97434802       2.54279327       0.00000000
