10
Lattice="16.290000149 0.0 0.0 0.0 16.290000149 0.0 0.0 0.0 29.1751946751" Properties=species:S:1:pos:R:3:initial_magmoms:R:1 pbc="T T T"
Si      -1.39512448       1.28309815      -1.35982665       0.00000000
Si       1.43868394      -1.37060803      -1.23241857       0.00000000
Si      -1.37577196      -1.31945743       1.35682160       0.00000000
Si       0.87840568       1.88910245       1.06935841       0.00000000
Si      -2.43426359       0.14537196       2.83600397       0.00000000
Si       0.05550003      -2.72090243      -2.57275619       0.00000000
Si      -2.57839751       2.73443942       0.05257370       0.00000000
Si      -0.01114236       2.61861752      -2.70066025       0.00000000
Si       2.78003514      -0.03784167      -2.60560746       0.00000000
Si      -2.74548405      -0.05997978      -2.67212691       0.00000000
