10
Lattice="16.290000149 0.0 0.0 0.0 16.290000149 0.0 0.0 0.0 29.1751946751" Properties=species:S:1:pos:R:3:initial_magmoms:R:1 pbc="T T T"
Si       0.61341625       0.51671880      -2.18204198       0.00000000
Si      -2.30097881      -0.06084315       0.45136944       0.00000000
Si       0.76923010       2.04625208       0.88074078       0.00000000
Si       1.22261338      -1.87009039       0.95189908       0.00000000
Si       1.70043167       1.00409932       2.71352651       0.00000000
Si       3.03272562      -0.54395569       1.55681756       0.00000000
Si       1.30104973      -1.53312359      -2.94765744       0.00000000
Si      -0.23524389      -0.02231730       3.61670301       0.00000000
Si      -2.43056576       0.36955494       2.80875434       0.00000000
Si      -3.16045551       2.01868940      -0.33805298       0.00000000
