10
Lattice="16.290000149 0.0 0.0 0.0 16.290000149 0.0 0.0 0.0 29.1751946751" Properties=species:S:1:pos:R:3:initial_magmoms:R:1 pbc="T T T"
Si       1.24903576      -1.37080351       1.41338647       0.00000000
Si      -1.28788741       1.44858826       1.32840205       0.00000000
Si       1.90889480       0.78850117      -1.12227346       0.00000000
Si      -1.83902699      -0.88182658      -1.18574118       0.00000000
H        0.69537124      -1.83001862      -1.92179341       0.00000000
Si       1.25503048       1.21420774      -3.25349517       0.00000000
Si       2.66901878       0.05822046       2.64870506       0.00000000
Si      -2.71544528       0.05799240       2.61001875       0.00000000
Si       2.74681983      -2.60704348       0.13374493       0.00000000
Si      -3.47359818       0.85351456      -1.26938500       0.00000000
