10
Lattice="16.290000149 0.0 0.0 0.0 16.290000149 0.0 0.0 0.0 29.1751946751" Properties=species:S:1:pos:R:3:initial_magmoms:R:1 pbc="T T T"
Si       1.42532614      -1.35949825      -1.27107571       0.00000000
Si       1.35620767       1.34944732       1.35495439       0.00000000
Si      -1.32475168      -1.38681658       1.38322515       0.00000000
Si      -1.33951042       1.33646419      -1.42188229       0.00000000
Si       0.03574026      -2.70501968      -2.54661522       0.00000000
Si      -2.68587893       2.61575048       0.03886136       0.00000000
Si       2.69720048       2.70192458      -0.03086736       0.00000000
Si       2.70161507      -0.03121164       2.70964621       0.00000000
Si       0.01220121       2.68048694       2.74176809       0.00000000
Si      -2.71160084      -0.06975378      -2.73422922       0.00000000
