10
Lattice="16.290000149 0.0 0.0 0.0 16.290000149 0.0 0.0 0.0 29.1751946751" Properties=species:S:1:pos:R:3:initial_magmoms:R:1 pbc="T T T"
Si      -1.34699079      -1.34770429       1.36828745       0.00000000
Si       1.35195598      -1.36938628      -1.35848459       0.00000000
Si      -1.36540664       1.34811154      -1.37202188       0.00000000
Si       1.33050205       1.34571691       1.41467601       0.00000000
Si      -2.64734380       2.69333975       0.08414126       0.00000000
Si       0.04683375       2.73877256      -2.62840788       0.00000000
Si       2.70524774       0.02801880      -2.67855128       0.00000000
Si      -2.71099811      -2.67825521      -0.01096987       0.00000000
Si       2.71814942       2.70495452       0.11071986       0.00000000
Si       0.00394218      -2.70650207       2.72849338       0.00000000
