10
Lattice="16.290000149 0.0 0.0 0.0 16.290000149 0.0 0.0 0.0 29.1751946751" Properties=species:S:1:pos:R:3:initial_magmoms:R:1 pbc="T T T"
Si      -1.33107220      -1.33947458       1.33180096       0.00000000
Si       1.49778406      -1.23623997      -1.27964154       0.00000000
Si      -1.24903576       1.37080351      -1.41338647       0.00000000
Si       1.41998302       1.42902397       1.23531859       0.00000000
Si       0.65985904       2.15930468      -2.53565993       0.00000000
H       -0.55366453      -0.45921510      -3.33517988       0.00000000
Si       2.36623655       0.48980772      -2.66297990       0.00000000
Si      -2.66418065       0.07947891       2.61556787       0.00000000
Si       0.10138896      -2.68721471       2.59214019       0.00000000
Si      -2.68936499      -2.62410540      -0.07526033       0.00000000
