10
Lattice="16.290000149 0.0 0.0 0.0 16.290000149 0.0 0.0 0.0 29.1751946751" Properties=species:S:1:pos:R:3:initial_magmoms:R:1 pbc="T T T"
Si       1.35887923       1.36515088       1.33126413       0.00000000
Si       1.36533007      -1.34708527      -1.35034471       0.00000000
Si      -1.32923143       1.36658440      -1.37619393       0.00000000
Si      -1.35578413      -1.37767789       1.35615057       0.00000000
Si       2.69496875      -0.01036044       2.68473059       0.00000000
Si      -0.00330687      -2.69601131      -2.68826079       0.00000000
Si      -2.70756092       0.00260640      -2.68137544       0.00000000
Si      -2.71458191       2.68105709      -0.01776769       0.00000000
Si       0.01161477       2.71282259       2.69791778       0.00000000
Si       2.69713532       2.72218934      -0.04977288       0.00000000
