10
Lattice="16.290000149 0.0 0.0 0.0 16.290000149 0.0 0.0 0.0 29.1751946751" Properties=species:S:1:pos:R:3:initial_magmoms:R:1 pbc="T T T"
Si      -2.23223501       0.50318181      -0.32722898       0.00000000
Si       0.89083495      -1.42423471       1.58893945       0.00000000
Si       0.56086471      -1.03628836      -2.00958741       0.00000000
Si       1.24359490       1.78589878      -0.84433013       0.00000000
H       -0.01177767      -1.49965741       2.80916279       0.00000000
Si       0.60515722       1.10879515      -2.99054498       0.00000000
Si       2.77640247      -0.08241111       1.97539408       0.00000000
Si       3.30105450       1.17400076       0.04510485       0.00000000
Si       1.16515855       1.44893198       3.05522639       0.00000000
Si      -1.06036498      -2.72360657      -2.08042478       0.00000000
