10
Lattice="16.290000149 0.0 0.0 0.0 16.290000149 0.0 0.0 0.0 29.1751946751" Properties=species:S:1:pos:R:3:initial_magmoms:R:1 pbc="T T T"
Si       1.38901410      -1.34913781       1.33027218       0.00000000
Si       1.37573775       1.34817670      -1.35063646       0.00000000
Si      -1.31420928      -1.36637263      -1.39448678       0.00000000
Si      -1.36961597       1.33985251       1.38048269       0.00000000
Si      -2.66212974      -2.71992503      -0.03678992       0.00000000
Si       0.02893919      -2.69944850       2.68400121       0.00000000
Si      -2.70163299       2.70618442       0.00837328       0.00000000
Si       0.02987260       2.70911988      -2.70620353       0.00000000
Si      -2.68265514      -0.00959481      -2.73534955       0.00000000
Si       2.70731495      -2.71195922      -0.06053853       0.00000000
