10
Lattice="16.290000149 0.0 0.0 0.0 16.290000149 0.0 0.0 0.0 29.1751946751" Properties=species:S:1:pos:R:3:initial_magmoms:R:1 pbc="T T T"
Si      -0.34741683       0.88252705       2.13536167       0.00000000
Si      -1.85515409      -0.93165769      -1.10664431       0.00000000
Si       1.05538024       1.76215448      -1.18232476       0.00000000
Si       1.60164910      -1.77699467      -0.08985960       0.00000000
Si       2.13824171       0.34199226      -2.68032513       0.00000000
Si      -0.67188106      -2.38299896      -2.51904466       0.00000000
Si       1.27381285       2.56984526       2.20619905       0.00000000
Si       2.22977522      -2.18084006       2.05813493       0.00000000
Si       3.43321527      -0.95192245      -1.25374564       0.00000000
Si      -3.15758847      -2.16741710       0.39427358       0.00000000
