10
Lattice="16.290000149 0.0 0.0 0.0 16.290000149 0.0 0.0 0.0 29.1751946751" Properties=species:S:1:pos:R:3:initial_magmoms:R:1 pbc="T T T"
Si      -0.53595729      -0.25954857       1.38450886       0.00000000
H       -0.67300507      -0.92831824      -1.61837722       0.00000000
H       -1.58206852       0.82139068      -1.18051590       0.00000000
H        1.27899307       1.75171259       0.42995484       0.00000000
Si       0.45789561      -0.98637580      -2.62314175       0.00000000
Si       2.18160569       1.82713529      -0.79026850       0.00000000
Si       2.52073091      -0.29268243      -1.72247432       0.00000000
Si       1.15445602      -1.18705231       2.69701335       0.00000000
Si      -2.33385203      -1.85417669       1.26553242       0.00000000
Si      -1.37847610       1.61253082       2.50486551       0.00000000
