10
Lattice="16.290000149 0.0 0.0 0.0 16.290000149 0.0 0.0 0.0 29.1751946751" Properties=species:S:1:pos:R:3:initial_magmoms:R:1 pbc="T T T"
H        0.71900803       0.07982100       1.32487477       0.00000000
H       -1.39457062       0.83797390       1.62928875       0.00000000
Si       1.60968007      -0.78832198      -1.52312021       0.00000000
Si      -1.87292648      -1.46240218      -0.15795450       0.00000000
Si      -0.34143840       1.95005963      -1.37243033       0.00000000
H        1.86839786       1.71100388       0.19952916       0.00000000
H        2.51895530       1.28767564       0.24206659       0.00000000
Si      -0.79563619       0.93059884       3.02984397       0.00000000
Si       0.12323385      -1.80266771      -2.99252889       0.00000000
Si      -0.99820234      -3.24402321      -1.44163389       0.00000000
