10
Lattice="16.290000149 0.0 0.0 0.0 16.290000149 0.0 0.0 0.0 29.1751946751" Properties=species:S:1:pos:R:3:initial_magmoms:R:1 pbc="T T T"
Si       1.42614064       1.38947185       1.17955312       0.00000000
Si      -1.31965291       1.44078535      -1.27626889       0.00000000
Si       1.43441596      -1.32175432      -1.28233733       0.00000000
Si      -1.38398212      -1.33551937       1.34083360       0.00000000
Si       0.05729193      -2.66188376      -2.61485600       0.00000000
Si      -2.66836718       0.07899021      -2.62442546       0.00000000
Si       0.01114236      -2.61861752       2.70066025       0.00000000
Si      -2.56725515       0.11582190       2.75323395       0.00000000
Si       2.72111420       0.09555714       2.60613261       0.00000000
Si       0.06929766       2.80036506      -2.58961945       0.00000000
