10
Lattice="16.290000149 0.0 0.0 0.0 16.290000149 0.0 0.0 0.0 29.1751946751" Properties=species:S:1:pos:R:3:initial_magmoms:R:1 pbc="T T T"
Si      -1.35695375       1.40657635      -1.31302964       0.00000000
Si       1.17442756       1.46867383       1.44857176       0.00000000
Si      -1.48813387      -1.20365182       1.43049481       0.00000000
Si       1.00540252      -1.23874048      -1.84454333       0.00000000
Si      -2.46270105      -0.30063195      -2.56493724       0.00000000
Si      -1.05199192      -2.25624647      -2.56782558       0.00000000
Si       2.40150440       0.49951656      -2.76035269       0.00000000
Si      -0.12924486      -2.53490321       2.81881687       0.00000000
Si       2.54826101       0.11753235       2.80986008       0.00000000
Si       2.47485827       2.95287204       0.17521484       0.00000000
