10
Lattice="16.290000149 0.0 0.0 0.0 16.290000149 0.0 0.0 0.0 29.1751946751" Properties=species:S:1:pos:R:3:initial_magmoms:R:1 pbc="T T T"
Si       1.33710276       1.35044101      -1.37000879       0.00000000
Si      -1.37920715       1.39539115       1.29820864       0.00000000
Si       1.34749578      -1.35290080       1.38558835       0.00000000
Si      -1.37943040      -1.36000324      -1.35687995       0.00000000
Si      -0.11641812      -2.73443942       2.60242737       0.00000000
Si      -2.69011108       0.05817159       2.66497898       0.00000000
Si       2.68632202      -2.68376123      -0.02234820       0.00000000
Si       2.68079971       2.69665966       0.01881800       0.00000000
Si      -0.06883991       2.68860425      -2.70311096       0.00000000
Si       2.68870036      -0.01094688      -2.73103162       0.00000000
