10
Lattice="16.290000149 0.0 0.0 0.0 16.290000149 0.0 0.0 0.0 29.1751946751" Properties=species:S:1:pos:R:3:initial_magmoms:R:1 pbc="T T T"
H        1.31307175      -0.45833544       0.60526859       0.00000000
Si      -1.25856541       0.24646770       1.93769973       0.00000000
Si       0.26637408       2.03076029      -1.19632886       0.00000000
Si      -0.97169851      -1.99645355      -0.87668542       0.00000000
H        1.88333579      -0.58189510      -1.72623792       0.00000000
Si       3.06892200      -1.09354771      -0.92680841       0.00000000
H       -0.88672987      -2.82119997       1.69682932       0.00000000
Si      -1.92766088       2.75423178      -0.72862131       0.00000000
Si      -3.32140071      -0.44722566       1.03703229       0.00000000
H        1.07623144       0.16680960      -3.37895435       0.00000000
