10
Lattice="16.290000149 0.0 0.0 0.0 16.290000149 0.0 0.0 0.0 29.1751946751" Properties=species:S:1:pos:R:3:initial_magmoms:R:1 pbc="T T T"
Si       1.31090393       1.33721956      -1.36677034       0.00000000
Si      -1.27601200      -1.46236960      -1.29876297       0.00000000
Si      -1.30333033       1.41287260       1.33820783       0.00000000
Si       1.23263173      -1.49128435       1.36061438       0.00000000
H       -1.92280646      -2.28959210      -0.22286931       0.00000000
Si      -2.59643054      -0.02551014       2.61675239       0.00000000
Si       2.54331537       2.69696428       0.07856880       0.00000000
Si      -0.15814332       2.63045547      -2.63854626       0.00000000
Si       2.69011108      -0.05817159      -2.66497898       0.00000000
Si       2.57369296      -2.79261102      -0.06255162       0.00000000
