10
Lattice="16.290000149 0.0 0.0 0.0 16.290000149 0.0 0.0 0.0 29.1751946751" Properties=species:S:1:pos:R:3:initial_magmoms:R:1 pbc="T T T"
Si      -1.35035956      -1.34307793      -1.31230026       0.00000000
Si       1.39512448      -1.28309815       1.35982665       0.00000000
Si       1.38398212       1.33551937      -1.34083360       0.00000000
Si      -1.18327303       1.45134127       1.41240035       0.00000000
Si       2.27353016       0.60600430       2.42918506       0.00000000
Si       0.67188106       2.38299896       2.51904466       0.00000000
Si      -2.66036879       0.08431704      -2.60969199       0.00000000
Si       0.08762391      -2.67771764      -2.59352893       0.00000000
Si       0.01935252      -2.60255558       2.71664825       0.00000000
Si      -2.72240111      -2.59660973       0.12005593       0.00000000
