10
Lattice="16.290000149 0.0 0.0 0.0 16.290000149 0.0 0.0 0.0 29.1751946751" Properties=species:S:1:pos:R:3:initial_magmoms:R:1 pbc="T T T"
Si       0.15855057      -0.79519636      -1.27623972       0.00000000
H       -1.40201515       2.02940822      -0.45831313       0.00000000
Si       0.92523943      -0.15568353       2.54142203       0.00000000
Si      -2.05153004      -0.71302960      -2.08588054       0.00000000
H       -1.28689372      -2.68737761       0.45691272       0.00000000
Si       1.01802727      -2.87472891      -0.48681730       0.00000000
Si      -0.79907338       1.46846206       2.64414789       0.00000000
Si       2.79425631       0.73660123       1.26381108       0.00000000
Si       0.88844032      -2.44433081       1.87056761       0.00000000
Si       1.23693229       0.37196586      -2.98313448       0.00000000
