10
Lattice="16.290000149 0.0 0.0 0.0 16.290000149 0.0 0.0 0.0 29.1751946751" Properties=species:S:1:pos:R:3:initial_magmoms:R:1 pbc="T T T"
Si       1.34615674      -1.34501644       1.36531159       0.00000000
Si      -1.35316144       1.32874273       1.40245161       0.00000000
Si      -1.42200298      -1.46000755      -1.22477467       0.00000000
Si       1.46039851       1.43691566      -1.21482593       0.00000000
Si      -0.99597061       0.92582587      -3.42094912       0.00000000
Si       0.04323366       2.77971748      -2.46933013       0.00000000
Si      -2.82783000      -0.09620874      -2.47847947       0.00000000
Si       2.68985369      -2.64877031      -0.05829204       0.00000000
Si      -0.08478945      -2.61449615      -2.78202986       0.00000000
Si      -0.00962739      -2.71546157       2.71160094       0.00000000
