10
Lattice="16.290000149 0.0 0.0 0.0 16.290000149 0.0 0.0 0.0 29.1751946751" Properties=species:S:1:pos:R:3:initial_magmoms:R:1 pbc="T T T"
Si       2.26979486      -0.51613236       0.13079240       0.00000000
Si      -0.36970155       0.77987073       2.18253796       0.00000000
Si      -0.55022733       1.71992754      -1.54100461       0.00000000
Si      -1.50490279      -1.86908204      -0.44541770       0.00000000
H        1.74645092       0.11424177       2.64729881       0.00000000
H       -1.51488856       1.79233985       2.15237081       0.00000000
Si       2.56010384      -1.32985045      -2.03642859       0.00000000
Si      -1.08717832      -1.19886256       3.20013958       0.00000000
Si      -2.54361836       2.60322347      -0.56229353       0.00000000
Si      -2.65134413      -1.99941833       1.61510960       0.00000000
