10
Lattice="16.290000149 0.0 0.0 0.0 16.290000149 0.0 0.0 0.0 29.1751946751" Properties=species:S:1:pos:R:3:initial_magmoms:R:1 pbc="T T T"
Si      -2.05745960       0.61189802      -0.88943498       0.00000000
Si       1.02872980      -1.62308349      -1.31726004       0.00000000
Si      -0.52465203      -1.25641187       1.93028923       0.00000000
Si       1.51604515       1.85414736       0.07130418       0.00000000
Si       2.32183001      -0.18470075      -2.59580460       0.00000000
Si      -3.30105450      -1.17400076      -0.04510485       0.00000000
Si       2.55476072      -2.61815815       0.18818001       0.00000000
Si       0.77729365       3.17663474      -1.71938175       0.00000000
Si      -2.13589595       0.27493122       3.01012154       0.00000000
Si       0.89507035       2.92063738       2.12019057       0.00000000
