10
Lattice="16.290000149 0.0 0.0 0.0 16.290000149 0.0 0.0 0.0 29.1751946751" Properties=species:S:1:pos:R:3:initial_magmoms:R:1 pbc="T T T"
Si       1.36726858       1.35000118      -1.35059270       0.00000000
Si      -1.34340373      -1.36906048      -1.36388492       0.00000000
Si       1.35148357      -1.31890357       1.40802407       0.00000000
Si      -1.36273996       1.37331217       1.35011131       0.00000000
Si       2.67160889       2.64507248       0.12527829       0.00000000
Si      -2.69871545      -2.68190417       0.03749013       0.00000000
Si       0.08355141      -2.74499535      -2.65713961       0.00000000
Si      -0.00402363       2.76193695      -2.65445549       0.00000000
Si       2.77052178      -2.64945449       0.10587678       0.00000000
Si      -2.71723718      -0.01791900      -2.72517324       0.00000000
