10
Lattice="16.290000149 0.0 0.0 0.0 16.290000149 0.0 0.0 0.0 29.1751946751" Properties=species:S:1:pos:R:3:initial_magmoms:R:1 pbc="T T T"
Si      -0.97246414       1.45538119       1.50999138       0.00000000
Si       1.56853153      -1.27917226       1.12409108       0.00000000
Si       1.61855812       1.02788272      -1.39369905       0.00000000
Si      -1.89838775      -1.49832163      -0.32005189       0.00000000
H       -0.38374353      -2.34909947      -2.02502109       0.00000000
H        0.76564630      -0.71791660      -3.15036670       0.00000000
H       -2.49732218      -1.59094657      -1.72060711       0.00000000
Si       0.17542701      -2.71484255       2.30069750       0.00000000
Si      -2.66287745       2.38288493       0.19748689       0.00000000
H       -2.12692016       2.64243350      -1.18702197       0.00000000
