10
Lattice="16.290000149 0.0 0.0 0.0 16.290000149 0.0 0.0 0.0 29.1751946751" Properties=species:S:1:pos:R:3:initial_magmoms:R:1 pbc="T T T"
Si       1.33749046      -1.19741997      -1.51883146       0.00000000
Si      -1.37377318      -1.44080886       1.27586044       0.00000000
Si       1.41669244       1.44497933       1.24178381       0.00000000
Si      -1.88986808       1.12004595      -1.06139358       0.00000000
H       -1.79064569      -0.34755437      -1.66602032       0.00000000
H        0.72883090       2.55880972      -1.49359492       0.00000000
Si      -0.51714234       2.53978300      -2.35391306       0.00000000
Si      -2.86474314       1.91027223       0.98075334       0.00000000
Si      -2.56185893       0.12259051       2.56735878       0.00000000
Si      -0.21185145      -2.50659841      -2.70445302       0.00000000
