10
Lattice="16.290000149 0.0 0.0 0.0 16.290000149 0.0 0.0 0.0 29.1751946751" Properties=species:S:1:pos:R:3:initial_magmoms:R:1 pbc="T T T"
Si      -1.19681002      -0.36334845      -0.89004766       0.00000000
H        1.40201515      -2.02940822       0.45831313       0.00000000
Si      -0.34622766       1.12330954      -2.52175795       0.00000000
Si       0.07929972       2.93837394      -1.03904538       0.00000000
Si      -1.96706476      -2.49126230       0.28722979       0.00000000
Si       1.99904366       1.17731089       2.18665167       0.00000000
Si      -1.45445266      -1.57845214       2.37917878       0.00000000
Si       0.60294178      -0.56094616       3.10246103       0.00000000
Si      -0.64951489      -2.74243782      -1.62756741       0.00000000
H        3.11730330       0.64293373      -0.73757810       0.00000000
