10
Lattice="16.290000149 0.0 0.0 0.0 16.290000149 0.0 0.0 0.0 29.1751946751" Properties=species:S:1:pos:R:3:initial_magmoms:R:1 pbc="T T T"
Si       1.29334456       1.43666398       1.31335056       0.00000000
Si      -1.35496963       1.36677988      -1.33715752       0.00000000
Si      -1.30813588      -1.34686047       1.42325352       0.00000000
Si       1.42522840      -1.36205578      -1.29879214       0.00000000
Si       2.53376291       0.04704552       2.68607265       0.00000000
Si      -2.65183283      -2.69307911       0.03442673       0.00000000
Si       0.06353100      -2.70459614      -2.67656153       0.00000000
Si      -2.71042796      -0.00115659      -2.67495690       0.00000000
Si       0.02016702       2.70324407      -2.69920149       0.00000000
Si       2.76038940       0.00198738      -2.66807155       0.00000000
