10
Lattice="16.290000149 0.0 0.0 0.0 16.290000149 0.0 0.0 0.0 29.1751946751" Properties=species:S:1:pos:R:3:initial_magmoms:R:1 pbc="T T T"
Si       1.31608540      -1.48806079      -1.21353055       0.00000000
Si       1.35829279       1.28463081       1.40706129       0.00000000
Si      -1.35500221      -1.39431184       1.30561914       0.00000000
Si      -1.37815030       1.32676653      -1.36191268       0.00000000
Si       2.68936499       2.62410540       0.07526033       0.00000000
Si      -2.70420518       2.64930603       0.02930940       0.00000000
Si      -2.67882536      -0.04225812       2.68989460       0.00000000
Si       0.02518434       2.70358431       2.69082820       0.00000000
Si       0.02966409      -2.75107337       2.64464387       0.00000000
Si      -2.69172704      -2.71919384      -0.09937655       0.00000000
