10
Lattice="16.290000149 0.0 0.0 0.0 16.290000149 0.0 0.0 0.0 29.1751946751" Properties=species:S:1:pos:R:3:initial_magmoms:R:1 pbc="T T T"
Si       0.73875151      -1.32248737       1.79068592       0.00000000
Si      -1.75661588       0.96941791       1.26381108       0.00000000
Si       1.39377241       1.82312795      -0.74802282       0.00000000
Si       0.10953396      -1.73433116      -1.80404816       0.00000000
H       -2.14475771      -0.25342353      -1.30850748       0.00000000
Si       2.88443775       0.55789993      -2.03240241       0.00000000
Si       2.73214253      -2.20578331       0.81197484       0.00000000
Si      -0.77729365      -3.17663474       1.71938175       0.00000000
Si      -2.78932044       0.58836223      -2.38787298       0.00000000
Si       1.45764550      -0.71373007      -3.43689628       0.00000000
