10
Lattice="16.290000149 0.0 0.0 0.0 16.290000149 0.0 0.0 0.0 29.1751946751" Properties=species:S:1:pos:R:3:initial_magmoms:R:1 pbc="T T T"
H       -1.18262143      -0.53382330      -1.05258267       0.00000000
Si      -1.53810181       1.27280287       1.19746669       0.00000000
Si       1.14295528      -1.51167943       1.37183808       0.00000000
Si       1.66850815       0.78353272      -1.44933615       0.00000000
Si      -2.47969640      -1.08312211      -1.97314759       0.00000000
Si       3.07921728      -1.17208180      -1.45222449       0.00000000
Si      -0.14346603       2.59786406       2.55948731       0.00000000
Si       2.64307533      -0.11948715       2.54609590       0.00000000
Si       2.77425544       2.49074102      -0.19742854       0.00000000
Si       2.39294564      -2.95487571       0.03667322       0.00000000
