10
Lattice="16.290000149 0.0 0.0 0.0 16.290000149 0.0 0.0 0.0 29.1751946751" Properties=species:S:1:pos:R:3:initial_magmoms:R:1 pbc="T T T"
Si       1.31569444      -1.26345241       1.47218908       0.00000000
Si      -0.85564855      -1.93763036      -1.04066752       0.00000000
Si      -1.43164666       1.37181349       1.28457507       0.00000000
Si       1.21818250       1.43386210      -1.44235452       0.00000000
Si       2.57471597      -2.66396888       0.10705546       0.00000000
Si       2.61281828       2.75892330      -0.08033390       0.00000000
Si      -0.05955624       2.77803147       2.59692201       0.00000000
Si      -0.09552456      -2.66791106       2.73031100       0.00000000
Si       2.75628432       0.16105923      -2.63982121       0.00000000
Si      -1.50951286      -1.51192378      -3.17188924       0.00000000
