10
Lattice="16.290000149 0.0 0.0 0.0 16.290000149 0.0 0.0 0.0 29.1751946751" Properties=species:S:1:pos:R:3:initial_magmoms:R:1 pbc="T T T"
Si      -1.37041255       1.36068905      -1.31340891       0.00000000
Si      -1.38764737      -1.35923761       1.30395615       0.00000000
Si       1.32382315      -1.35205372      -1.38427546       0.00000000
Si       1.35553978       1.37188517       1.33806195       0.00000000
Si      -0.00535941      -2.70506855       2.63997584       0.00000000
Si      -0.02537982       2.69156414      -2.66058520       0.00000000
Si       2.67882536       0.04225812      -2.68989460       0.00000000
Si      -2.70552467       0.01138671       2.69284129       0.00000000
Si       2.73803951       0.01255959       2.66028178       0.00000000
Si      -0.00443088       2.72938952       2.67746597       0.00000000
