10
Lattice="16.290000149 0.0 0.0 0.0 16.290000149 0.0 0.0 0.0 29.1751946751" Properties=species:S:1:pos:R:3:initial_magmoms:R:1 pbc="T T T"
Si       1.76197529       1.00993114       1.17056716       0.00000000
Si       1.34106123      -1.30132666      -1.42316600       0.00000000
Si      -1.23263173       1.49128435      -1.36061438       0.00000000
Si      -1.30342807      -1.29546226       1.49490780       0.00000000
H       -3.15543819      -0.79830775      -1.58348369       0.00000000
Si      -2.30303135       0.47069955       2.76157805       0.00000000
Si      -2.50864373       0.02891475      -2.65937734       0.00000000
Si       3.41700672      -0.64552384       1.25812192       0.00000000
Si       2.75602368      -2.52402149      -0.04326681       0.00000000
Si       2.68548797       2.73422766      -0.12101871       0.00000000
