10
Lattice="16.290000149 0.0 0.0 0.0 16.290000149 0.0 0.0 0.0 29.1751946751" Properties=species:S:1:pos:R:3:initial_magmoms:R:1 pbc="T T T"
Si       1.34135119       1.33276636      -1.37318889       0.00000000
Si      -1.43868394       1.37060803       1.23241857       0.00000000
Si       1.34174215      -1.34702011       1.38351691       0.00000000
Si      -1.38318391      -1.35029440      -1.34033762       0.00000000
Si      -0.15995151      -2.70816365       2.54527316       0.00000000
Si       2.70084944       2.64096740       0.01645481       0.00000000
Si      -0.01304829      -2.73745308      -2.65141252       0.00000000
Si      -2.81445591       0.05115060       2.58924018       0.00000000
Si       2.71477739      -0.02617803      -2.69430005       0.00000000
Si      -0.01541034       2.66747123      -2.75057900       0.00000000
