10
Lattice="16.290000149 0.0 0.0 0.0 16.290000149 0.0 0.0 0.0 29.1751946751" Properties=species:S:1:pos:R:3:initial_magmoms:R:1 pbc="T T T"
Si      -1.42956154       1.44381529       1.12143613       0.00000000
Si      -1.35949825      -1.30820104      -1.38964370       0.00000000
Si       1.34969167       1.39101940      -1.34515153       0.00000000
Si       1.33160977      -1.31523832       1.44277173       0.00000000
H       -0.58507165       2.37816083       1.93104779       0.00000000
Si      -2.70084944      -2.64096740      -0.01645481       0.00000000
Si       0.01392795      -2.66714543      -2.71075486       0.00000000
Si       2.71725347      -2.66545127       0.08813826       0.00000000
Si       2.73313622       0.04735503      -2.68114204       0.00000000
Si      -2.72453510       2.73773001      -0.30514336       0.00000000
