10
Lattice="16.290000149 0.0 0.0 0.0 16.290000149 0.0 0.0 0.0 29.1751946751" Properties=species:S:1:pos:R:3:initial_magmoms:R:1 pbc="T T T"
Si       1.34699079       1.34770429      -1.36828745       0.00000000
Si       1.35093297      -1.35879778       1.36020593       0.00000000
Si      -1.33033150       1.34949619       1.39142338       0.00000000
Si      -1.36400732      -1.33055092      -1.37925733       0.00000000
Si       2.67749284       2.69342120       0.04638856       0.00000000
Si      -2.70500014      -2.68302818       0.00656442       0.00000000
Si      -2.69877736       2.70627401       0.05056061       0.00000000
Si       2.69119273       0.00390960       2.72537164       0.00000000
Si       2.69894677      -0.02168199      -2.72677204       0.00000000
Si      -2.67825196      -0.00405621       2.74912024       0.00000000
