10
Lattice="16.290000149 0.0 0.0 0.0 16.290000149 0.0 0.0 0.0 29.1751946751" Properties=species:S:1:pos:R:3:initial_magmoms:R:1 pbc="T T T"
Si      -1.36150811      -1.39538512      -1.31952987       0.00000000
Si       1.29428124      -1.35291709       1.43177268       0.00000000
Si      -1.35056677       1.32701599       1.40630273       0.00000000
Si       1.37309226       1.36472734      -1.35863338       0.00000000
Si      -2.66088193      -2.68475981       0.15398668       0.00000000
Si      -2.81044042      -0.00956223      -2.54617467       0.00000000
Si       0.07027995      -2.70426709      -2.67127791       0.00000000
Si       2.69528641       2.70431921       0.03378488       0.00000000
Si       2.65073326      -2.74820285       0.14298763       0.00000000
Si      -2.67987607       2.73647567       0.09449846       0.00000000
