10
Lattice="16.290000149 0.0 0.0 0.0 16.290000149 0.0 0.0 0.0 29.1751946751" Properties=species:S:1:pos:R:3:initial_magmoms:R:1 pbc="T T T"
Si       1.33888163      -1.35912358       1.36324015       0.00000000
Si      -1.35181915      -1.35283564      -1.36146046       0.00000000
Si      -1.32764479       1.34899120       1.39562461       0.00000000
Si       1.35870656       1.35205372      -1.36251077       0.00000000
Si       2.68984392       0.02710656       2.68633522       0.00000000
Si      -2.67047837       2.70679529       0.02640355       0.00000000
Si       0.03638860      -2.71391402      -2.68484729       0.00000000
Si      -2.69007524      -2.70987410       0.01957656       0.00000000
Si      -2.69722655       0.02782332      -2.71615227       0.00000000
Si       2.69896632       2.71476110       0.00265494       0.00000000
