10
Lattice="16.290000149 0.0 0.0 0.0 16.290000149 0.0 0.0 0.0 29.1751946751" Properties=species:S:1:pos:R:3:initial_magmoms:R:1 pbc="T T T"
Si      -1.34811154      -1.02060109       1.63284812       0.00000000
Si       1.23207787      -1.43002255      -1.41628065       0.00000000
Si      -1.35293338       1.31010697      -1.42637527       0.00000000
Si       1.42679224       1.27162999       1.40449387       0.00000000
Si       0.08689086      -2.64760542       2.56047343       0.00000000
Si      -0.06387309       2.53685801       2.68887347       0.00000000
Si       2.72228839       2.63018342      -0.04069940       0.00000000
Si      -1.45764550       0.71373007       3.43689628       0.00000000
Si      -2.74527228       2.66323583      -0.11273295       0.00000000
Si       2.61516404      -0.09269010      -2.79760942       0.00000000
