10
Lattice="16.290000149 0.0 0.0 0.0 16.290000149 0.0 0.0 0.0 29.1751946751" Properties=species:S:1:pos:R:3:initial_magmoms:R:1 pbc="T T T"
Si      -1.33776739      -1.44736651       1.25619636       0.00000000
Si       1.34397388      -1.36503685      -1.35116162       0.00000000
Si      -1.38730528       1.34258923      -1.34701874       0.00000000
Si       1.25763688       1.36792018       1.45566716       0.00000000
Si      -2.70005123      -0.07768701       2.51837363       0.00000000
Si       2.63648765       2.69474069       0.06611099       0.00000000
Si      -0.02718801       2.70599708      -2.68922357       0.00000000
Si       2.69189434      -0.01148445      -2.70885848       0.00000000
Si       2.68680746      -2.72284094       0.01805945       0.00000000
Si      -0.02678076      -2.71296920      -2.70690374       0.00000000
