10
Lattice="16.290000149 0.0 0.0 0.0 16.290000149 0.0 0.0 0.0 29.1751946751" Properties=species:S:1:pos:R:3:initial_magmoms:R:1 pbc="T T T"
Si      -1.38895057      -1.35957970       1.31335056       0.00000000
Si      -1.36954918       1.34190505      -1.35337893       0.00000000
Si       1.35237952      -1.36985869      -1.35084069       0.00000000
Si       1.37676565       1.36593280       1.33674907       0.00000000
Si       2.77200417      -0.08452881       2.53036463       0.00000000
Si       0.00746082       2.69739596      -2.68557667       0.00000000
Si      -0.06929766      -2.80036506       2.58961945       0.00000000
Si      -2.68965821       2.71042796       0.03040055       0.00000000
Si      -2.67983534       0.00834048       2.72560504       0.00000000
Si       2.72740214      -0.02736720      -2.69307469       0.00000000
