10
Lattice="16.290000149 0.0 0.0 0.0 16.290000149 0.0 0.0 0.0 29.1751946751" Properties=species:S:1:pos:R:3:initial_magmoms:R:1 pbc="T T T"
Si       1.36376623       1.34987086      -1.34996543       0.00000000
Si       1.37358910      -1.35221662       1.34523905       0.00000000
Si      -1.35159760       1.36138789       1.36102283       0.00000000
Si      -1.36940257      -1.36164853      -1.35247450       0.00000000
Si      -0.02598255       2.69844504      -2.68300925       0.00000000
Si      -0.00237834      -2.67281435       2.70868342       0.00000000
Si       2.66447387      -2.72013680      -0.06701542       0.00000000
Si       2.68387526      -0.01865205      -2.73374492       0.00000000
Si       2.72546363       2.69241122       0.02780396       0.00000000
Si      -2.68870036       0.01094688       2.73103162       0.00000000
