10
Lattice="16.290000149 0.0 0.0 0.0 16.290000149 0.0 0.0 0.0 29.1751946751" Properties=species:S:1:pos:R:3:initial_magmoms:R:1 pbc="T T T"
Si      -1.22474737       1.32186835      -1.51579724       0.00000000
Si       1.34118829       1.45600021       1.29176092       0.00000000
Si      -1.61855812      -1.02788272       1.39369905       0.00000000
Si       1.77942188      -1.54730566      -0.63146791       0.00000000
H       -0.85291183      -1.74579932      -1.75666765       0.00000000
H       -0.20235438      -2.16912755      -1.71413021       0.00000000
H        1.34688979       0.61706521      -2.84822838       0.00000000
Si      -0.05002659      -2.30705498       2.51779013       0.00000000
Si       0.03381804       1.07540065      -3.45349697       0.00000000
Si       1.01851597      -3.41817960       0.64981911       0.00000000
