10
Lattice="16.290000149 0.0 0.0 0.0 16.290000149 0.0 0.0 0.0 29.1751946751" Properties=species:S:1:pos:R:3:initial_magmoms:R:1 pbc="T T T"
Si       1.44000343       1.33017625       1.21009955       0.00000000
Si      -1.24041835       1.38961846      -1.37272208       0.00000000
Si       1.52120908      -1.31661646      -1.19758339       0.00000000
Si      -1.16243812      -1.43993502       1.50421469       0.00000000
H        2.08456616       0.48839049       2.28946505       0.00000000
Si       2.50326803      -2.17756740       0.78918902       0.00000000
Si       0.75613294      -2.50002632       2.28170445       0.00000000
Si       0.00760743       2.55578699       2.49605461       0.00000000
Si      -2.41758263      -2.75928168       0.03457261       0.00000000
Si      -2.53376291      -0.04704552      -2.68607265       0.00000000
