10
Lattice="16.290000149 0.0 0.0 0.0 16.290000149 0.0 0.0 0.0 29.1751946751" Properties=species:S:1:pos:R:3:initial_magmoms:R:1 pbc="T T T"
Si      -1.24597324      -0.01902672      -0.86031814       0.00000000
Si       2.30492099      -0.18735129      -0.94373002       0.00000000
Si       2.17533404       0.24304680       1.41365488       0.00000000
Si       1.44544429       1.89218126      -1.73315244       0.00000000
H        1.28689372       2.68737761      -0.45691272       0.00000000
Si      -2.61869897      -1.43876376       0.43220133       0.00000000
Si       0.68786155      -1.11383039       2.73537873       0.00000000
Si      -0.72883090      -2.55880972       1.49359492       0.00000000
Si      -0.69561559      -1.56097786      -2.59446254       0.00000000
Si      -2.08218619       2.22552353      -0.62799607       0.00000000
