10
Lattice="16.28999089631971 0.0 0.0 0.0 16.28999089631971 0.0 0.0 0.0 34.56409401068381" Properties=species:S:1:pos:R:3:initial_magmoms:R:1 pbc="T T T"
Si       0.93984666       1.72784935      -1.32756408       0.00000000
Si      -1.38098053       1.29521953       1.44054929       0.00000000
Si      -1.47992599      -1.21772800      -1.45524392       0.00000000
Si       1.34911662      -1.40989557       1.42387556       0.00000000
Si       1.93609419       0.02195892      -2.89839934       0.00000000
Si      -2.69980264       2.66644657       0.02138482       0.00000000
Si      -2.68004287      -2.73565042       0.02329276       0.00000000
Si      -0.01666141       2.65909978       2.80673389       0.00000000
Si       2.76093834       2.72681731      -0.04080294       0.00000000
Si      -0.97099151       3.44725885      -1.50888742       0.00000000
