10
Lattice="16.28999089631971 0.0 0.0 0.0 16.28999089631971 0.0 0.0 0.0 34.56409401068381" Properties=species:S:1:pos:R:3:initial_magmoms:R:1 pbc="T T T"
Si       1.60243101      -1.30556205       1.10667378       0.00000000
Si       0.61506153       0.75657276      -2.16640950       0.00000000
Si      -1.84360446      -1.43159778      -0.50795421       0.00000000
Si      -0.33850620       1.95618858       1.40907521       0.00000000
Si       3.46146210       0.27442134       0.69598299       0.00000000
Si      -2.81563853       0.45768384       2.34202975       0.00000000
Si      -3.42191650       0.04525362      -1.38595182       0.00000000
Si      -2.75622402      -1.85520294       1.62458245       0.00000000
Si      -0.70830549      -2.72310156       2.44783051       0.00000000
Si       2.91183750       2.45229890      -0.09470567       0.00000000
