10
Lattice="16.28999089631971 0.0 0.0 0.0 16.28999089631971 0.0 0.0 0.0 34.56409401068381" Properties=species:S:1:pos:R:3:initial_magmoms:R:1 pbc="T T T"
Si      -1.36049193       1.35342207       1.35881899       0.00000000
Si       1.35615879      -1.36052451       1.35830053       0.00000000
Si       1.34943102       1.34315937      -1.38606933       0.00000000
Si      -1.36691019      -1.35112518      -1.36793354       0.00000000
Si      -2.71601541       2.70967860      -0.00124431       0.00000000
Si       2.71278999      -2.71326892      -0.00283426       0.00000000
Si      -0.00074934       2.71215468       2.71549500       0.00000000
Si       2.71731861       2.71212210       0.00051846       0.00000000
Si       2.71417464      -0.00234576       2.71563326       0.00000000
Si      -2.71634121      -0.00273672       2.71580608       0.00000000
