10
Lattice="16.28999089631971 0.0 0.0 0.0 16.28999089631971 0.0 0.0 0.0 34.56409401068381" Properties=species:S:1:pos:R:3:initial_magmoms:R:1 pbc="T T T"
Si       1.35654975      -1.35306584       1.36027068       0.00000000
Si      -1.35778779      -1.35607928      -1.35650319       0.00000000
Si       1.35703845       1.35818852      -1.35615755       0.00000000
Si      -1.35597960       1.35699935       1.36220627       0.00000000
Si      -2.71414043      -2.71189145       0.00065672       0.00000000
Si      -0.00030951      -2.71392770      -2.71387049       0.00000000
Si       2.71406061      -2.71391141       0.00172821       0.00000000
Si      -2.71503312       0.00150194      -2.71359397       0.00000000
Si       2.71505430       0.00115007      -2.71376679       0.00000000
Si      -0.00052128       2.71604147      -2.71352484       0.00000000
