10
Lattice="16.28999089631971 0.0 0.0 0.0 16.28999089631971 0.0 0.0 0.0 34.56409401068381" Properties=species:S:1:pos:R:3:initial_magmoms:R:1 pbc="T T T"
Si       1.35492075       1.35557235      -1.35691796       0.00000000
Si       1.35764118      -1.35685926       1.35767837       0.00000000
Si      -1.35785295       1.35803214       1.35767837       0.00000000
Si      -1.35974259      -1.35873261      -1.35667601       0.00000000
Si       0.00074934      -2.71215468      -2.71549500       0.00000000
Si       0.00358380       2.71371852      -2.71504567       0.00000000
Si      -2.71476108       0.00068418       2.71459633       0.00000000
Si       2.71492398      -2.71450044       0.00013826       0.00000000
Si       0.00053757      -2.71349046       2.71594433       0.00000000
Si       2.71480995       2.71471221      -0.00044933       0.00000000
