10
Lattice="16.28999089631971 0.0 0.0 0.0 16.28999089631971 0.0 0.0 0.0 34.56409401068381" Properties=species:S:1:pos:R:3:initial_magmoms:R:1 pbc="T T T"
Si       1.35428544       1.34887716      -1.37727622       0.00000000
Si      -1.36166481      -1.36326123      -1.37572084       0.00000000
Si      -1.24735788       1.50267105       1.39134382       0.00000000
Si       1.40348124      -1.42974072       1.35498237       0.00000000
Si      -2.71391400       0.08540847       2.63174615       0.00000000
Si      -2.70125667       2.70650205      -0.02481703       0.00000000
Si       2.69928558       2.72386719      -0.00134800       0.00000000
Si       2.72062548      -2.71103067      -0.04216822       0.00000000
Si      -2.71280628      -2.72150514      -0.01503539       0.00000000
Si      -0.00177561       2.71103067      -2.73588783       0.00000000
