10
Lattice="16.28999089631971 0.0 0.0 0.0 16.28999089631971 0.0 0.0 0.0 34.56409401068381" Properties=species:S:1:pos:R:3:initial_magmoms:R:1 pbc="T T T"
Si       0.03868875      -2.18263194       0.69657058       0.00000000
Si      -0.63008091       0.36066060       2.24521567       0.00000000
Si      -1.86662223       0.52525476      -1.44173830       0.00000000
Si       2.76102468      -0.14529051       0.85304232       0.00000000
Si       1.19457828      -2.71178001      -1.36739089       0.00000000
Si      -0.40006611       1.94251734      -2.68214063       0.00000000
Si       0.97393023       3.32392563      -1.09250249       0.00000000
Si       2.25077301      -0.98989443      -2.71850208       0.00000000
Si      -3.52681758       1.67624100      -0.22715535       0.00000000
Si       3.09685932       2.37366477      -0.45372312       0.00000000
