10
Lattice="16.28999089631971 0.0 0.0 0.0 16.28999089631971 0.0 0.0 0.0 34.56409401068381" Properties=species:S:1:pos:R:3:initial_magmoms:R:1 pbc="T T T"
Si      -1.66019535       1.15098624       1.21458294       0.00000000
Si      -1.35521397      -1.45932336      -1.29836635       0.00000000
Si       1.46655612       1.41726258      -1.24040233       0.00000000
Si       1.86662223      -0.52525476       1.44173830       0.00000000
Si       0.01265733       2.62109358      -2.65656319       0.00000000
Si       2.71391400      -0.08540847      -2.63174615       0.00000000
Si      -2.71899159      -0.09716985      -2.65901724       0.00000000
Si      -2.73720381       2.68394040      -0.10517860       0.00000000
Si       0.00110772      -2.80691361      -2.64678154       0.00000000
Si      -2.65436916      -2.84100858       0.10244803       0.00000000
