10
Lattice="16.28999089631971 0.0 0.0 0.0 16.28999089631971 0.0 0.0 0.0 34.56409401068381" Properties=species:S:1:pos:R:3:initial_magmoms:R:1 pbc="T T T"
Si       1.70535123      -1.35430988       0.90896705       0.00000000
Si      -2.02954571       0.33140376       1.19481227       0.00000000
Si      -0.99874642      -1.11119791      -1.85851237       0.00000000
Si       1.05591780       1.98685872      -0.82438867       0.00000000
Si      -1.77453975       0.79697196      -2.97635036       0.00000000
Si       1.67029515      -3.04504802      -0.83638241       0.00000000
Si       0.31913739       1.87434369      -3.08508906       0.00000000
Si       0.84214413      -1.90641707       3.01464740       0.00000000
Si       0.85392180      -2.19350389      -2.88333833       0.00000000
Si       3.45691719       1.71781308      -1.00229016       0.00000000
