10
Lattice="16.28999089631971 0.0 0.0 0.0 16.28999089631971 0.0 0.0 0.0 34.56409401068381" Properties=species:S:1:pos:R:3:initial_magmoms:R:1 pbc="T T T"
Si      -1.35690813      -1.35734796       1.35691796       0.00000000
Si      -1.35767376       1.35749457      -1.35747099       0.00000000
Si       1.35785295      -1.35803214      -1.35767837       0.00000000
Si       1.35922131       1.35863487       1.35826596       0.00000000
Si       2.71277370      -0.00245979      -2.71459633       0.00000000
Si      -2.71443528       2.71456560       0.00006913       0.00000000
Si      -2.71375110      -0.00006516      -2.71535674       0.00000000
Si       0.00127062       2.71435383      -2.71508023       0.00000000
Si       2.71526607       2.71497285      -0.00024195       0.00000000
Si       2.71549413      -2.71489140       0.00000000       0.00000000
