10
Lattice="16.28999089631971 0.0 0.0 0.0 16.28999089631971 0.0 0.0 0.0 34.56409401068381" Properties=species:S:1:pos:R:3:initial_magmoms:R:1 pbc="T T T"
Si       0.98608257       1.05906177       1.83970950       0.00000000
Si       1.95175377       0.12439044      -1.41308465       0.00000000
Si      -1.91440080       1.46953719      -0.10818567       0.00000000
Si      -0.50026590      -2.26797525       0.69587929       0.00000000
Si      -0.97169850      -1.70655669      -2.84051340       0.00000000
Si       1.06626195      -0.60463593      -3.50089535       0.00000000
Si       1.22274369       3.40219908       1.19007699       0.00000000
Si      -2.07374958       2.45047212       2.11432138       0.00000000
Si      -0.57181158       1.34249148       3.57247763       0.00000000
Si      -1.08991503      -3.50831214      -1.21503228       0.00000000
