10
Lattice="16.28999089631971 0.0 0.0 0.0 16.28999089631971 0.0 0.0 0.0 34.56409401068381" Properties=species:S:1:pos:R:3:initial_magmoms:R:1 pbc="T T T"
Si      -2.21501387       0.72761077      -0.06442751       0.00000000
Si       1.60770245       1.69264992       0.10963737       0.00000000
Si       0.19634663      -1.54921388      -1.77856558       0.00000000
Si       0.80262459      -1.13678366       1.94941599       0.00000000
Si       3.27975692       0.36172108       1.01646144       0.00000000
Si      -2.08659980       2.15865795      -1.97744749       0.00000000
Si      -1.15896575      -1.27840892       3.15559985       0.00000000
Si       1.77465866      -3.02606528      -0.90056797       0.00000000
Si      -1.91366516      -2.48776223      -1.87168130       0.00000000
Si      -2.46273590       2.00351199       1.89556510       0.00000000
