10
Lattice="16.28999089631971 0.0 0.0 0.0 16.28999089631971 0.0 0.0 0.0 34.56409401068381" Properties=species:S:1:pos:R:3:initial_magmoms:R:1 pbc="T T T"
Si       0.90406242       1.32359508       1.63930677       0.00000000
Si      -0.59842944       1.74334800      -1.40510033       0.00000000
Si       1.33876107      -1.60337583      -1.07674126       0.00000000
Si      -2.02357638      -0.75417813       1.03965396       0.00000000
Si      -1.76564052       0.29335032      -2.88178295       0.00000000
Si      -1.05740019       2.50368082       2.14829790       0.00000000
Si      -0.86903892      -2.52470565       2.24324552       0.00000000
Si      -0.25795215      -3.32636913      -1.29808984       0.00000000
Si      -2.00230164      -2.04978699      -2.23215044       0.00000000
Si       2.20807692       2.98222889       0.56702428       0.00000000
