10
Lattice="16.28999089631971 0.0 0.0 0.0 16.28999089631971 0.0 0.0 0.0 34.56409401068381" Properties=species:S:1:pos:R:3:initial_magmoms:R:1 pbc="T T T"
Si       1.35418770      -1.35319727      -1.36065089       0.00000000
Si       1.36273995       1.37142252       1.33427847       0.00000000
Si      -1.36049193       1.36332639      -1.35944114       0.00000000
Si      -1.36415718      -1.37400286       1.38190781       0.00000000
Si       0.04559571       2.65271247       2.73142906       0.00000000
Si       2.70923877      -2.70541722      -0.00200472       0.00000000
Si      -2.71955034      -2.70718186      -0.00127887       0.00000000
Si      -0.00410508      -2.71019020      -2.71781080       0.00000000
Si       2.71077003       0.00490329      -2.71787992       0.00000000
Si       2.70787041       2.72217303      -0.00508092       0.00000000
