10
Lattice="16.28999089631971 0.0 0.0 0.0 16.28999089631971 0.0 0.0 0.0 34.56409401068381" Properties=species:S:1:pos:R:3:initial_magmoms:R:1 pbc="T T T"
Si      -1.35505107       1.35221995      -1.35864617       0.00000000
Si       1.34617302       1.35195931       1.36991407       0.00000000
Si       1.35835794      -1.36371794      -1.35833509       0.00000000
Si      -1.36176255      -1.35555665       1.37751817       0.00000000
Si      -2.70923877       2.70541722       0.00200472       0.00000000
Si       0.05247009      -2.66791163       2.74881480       0.00000000
Si       0.00153126       2.71032051      -2.71587520       0.00000000
Si       2.71740006       2.70958746       0.00069128       0.00000000
Si      -2.71334385      -0.00477298      -2.71580608       0.00000000
Si       2.71713942      -0.00473416      -2.71608259       0.00000000
