10
Lattice="16.28999089631971 0.0 0.0 0.0 16.28999089631971 0.0 0.0 0.0 34.56409401068381" Properties=species:S:1:pos:R:3:initial_magmoms:R:1 pbc="T T T"
Si       0.38766942      -0.55508175      -2.20197597       0.00000000
Si       0.00172674      -1.64030526       1.67165878       0.00000000
Si      -1.60316406       1.58488668       0.73849685       0.00000000
Si       2.24948610       0.75960270      -0.79566589       0.00000000
Si      -1.75831002      -2.85668445       0.67479518       0.00000000
Si      -0.33979311       2.42028675       2.61235569       0.00000000
Si       3.32514738       1.25310825       1.26971270       0.00000000
Si       2.15399412      -2.54864543       1.92356203       0.00000000
Si      -3.73827807       0.42311646       1.02054001       0.00000000
Si      -2.31541173       3.00415293      -1.04335232       0.00000000
