10
Lattice="16.28999089631971 0.0 0.0 0.0 16.28999089631971 0.0 0.0 0.0 34.56409401068381" Properties=species:S:1:pos:R:3:initial_magmoms:R:1 pbc="T T T"
Si       1.31714424      -1.28128995      -1.39715059       0.00000000
Si      -1.40348124       1.42974072      -1.35498237       0.00000000
Si      -1.05619473      -1.72188558       1.35111119       0.00000000
Si       1.27332414      -1.05972966       2.04108002       0.00000000
Si       2.39391324       0.94284891       1.56077710       0.00000000
Si      -2.25077301       0.98989443       2.71850208       0.00000000
Si       2.71391400      -2.49365691       0.04489878       0.00000000
Si       0.51025167       0.84460392       3.57154439       0.00000000
Si      -0.04559571      -2.65271247      -2.73142906       0.00000000
Si       2.66227470       0.06946056      -2.73650998       0.00000000
