10
Lattice="16.28999089631971 0.0 0.0 0.0 16.28999089631971 0.0 0.0 0.0 34.56409401068381" Properties=species:S:1:pos:R:3:initial_magmoms:R:1 pbc="T T T"
Si       0.45975267       2.27271564       0.26330942       0.00000000
Si      -0.07073118      -0.93757095       2.17418642       0.00000000
Si      -0.94060089      -1.97183934      -0.96409681       0.00000000
Si       1.94338071      -0.67667031      -1.22654213       0.00000000
Si      -1.96651251       2.00368629      -0.81809800       0.00000000
Si       1.68733449      -3.00188862      -1.51166150       0.00000000
Si      -0.65987532      -3.18915846       1.90185577       0.00000000
Si       1.31851260      -0.73456497      -3.59387281       0.00000000
Si      -0.86913666       3.31134975       1.92722583       0.00000000
Si       3.89414079      -0.67909752       0.19300601       0.00000000
