10
Lattice="16.28999089631971 0.0 0.0 0.0 16.28999089631971 0.0 0.0 0.0 34.56409401068381" Properties=species:S:1:pos:R:3:initial_magmoms:R:1 pbc="T T T"
Si      -1.35604476      -1.35633798       1.35850791       0.00000000
Si      -1.35751086       1.35707103      -1.35695253       0.00000000
Si       1.35806472       1.35788553       1.35684883       0.00000000
Si       1.35739683      -1.35829278      -1.35788576       0.00000000
Si      -0.00079821       2.71191033       2.71625541       0.00000000
Si      -2.71399545      -0.00061902      -2.71483828       0.00000000
Si       2.71476108       2.71415835      -0.00003456       0.00000000
Si       2.71469592      -0.00276930      -2.71466546       0.00000000
Si      -0.00172674       2.71568961      -2.71397418       0.00000000
Si      -2.71529865       2.71476108       0.00041477       0.00000000
