10
Lattice="16.28999089631971 0.0 0.0 0.0 16.28999089631971 0.0 0.0 0.0 34.56409401068381" Properties=species:S:1:pos:R:3:initial_magmoms:R:1 pbc="T T T"
Si       2.08078686       1.01441088      -0.40498772       0.00000000
Si      -1.43749476       1.88257014       0.16639164       0.00000000
Si       0.10205685      -1.06924302       2.13747933       0.00000000
Si      -0.78934824      -1.25600787      -1.88066797       0.00000000
Si      -2.25829899       1.60919136       2.37199684       0.00000000
Si      -1.26604251      -2.95577163       1.73453090       0.00000000
Si       2.09536641       2.77604406       1.19432837       0.00000000
Si       2.38110930      -1.72647936       2.36536053       0.00000000
Si      -3.14520804      -1.56582738      -1.43403050       0.00000000
Si      -0.78095889       0.42733557       3.71204751       0.00000000
