10
Lattice="16.28999089631971 0.0 0.0 0.0 16.28999089631971 0.0 0.0 0.0 34.56409401068381" Properties=species:S:1:pos:R:3:initial_magmoms:R:1 pbc="T T T"
Si      -1.34907264       1.30160358      -1.41858034       0.00000000
Si      -1.37011932      -1.34578206       1.36919168       0.00000000
Si       1.34599383       1.36676358       1.37454912       0.00000000
Si       1.34418564      -1.43394354      -1.47300499       0.00000000
Si      -2.59089192      -0.40920480      -2.56233381       0.00000000
Si       2.70692559      -2.70518256       0.00410967       0.00000000
Si       2.70800073       2.71703062       0.00997866       0.00000000
Si      -2.72893338       2.70659183       0.00796357       0.00000000
Si       2.70288567       0.01176138       2.73516544       0.00000000
Si      -0.01317861      -2.70557352       2.73461241       0.00000000
