10
Lattice="16.28999089631971 0.0 0.0 0.0 16.28999089631971 0.0 0.0 0.0 34.56409401068381" Properties=species:S:1:pos:R:3:initial_magmoms:R:1 pbc="T T T"
Si      -1.41423264       1.31235498      -1.37129663       0.00000000
Si       1.30292307      -1.40227578      -1.39296833       0.00000000
Si      -1.15457004      -1.41688791       1.54688233       0.00000000
Si       1.50941511       1.21419144       1.43593152       0.00000000
Si       2.07243009      -0.75756645       2.79326425       0.00000000
Si      -2.63718810      -2.65336407       0.17102323       0.00000000
Si       2.70018153       2.67901533      -0.00179733       0.00000000
Si      -2.82041802       2.55397878       0.17012457       0.00000000
Si      -1.97223030       0.06385680       3.26793322       0.00000000
Si       2.66460417      -0.05214429      -2.74808896       0.00000000
