10
Lattice="16.28999089631971 0.0 0.0 0.0 16.28999089631971 0.0 0.0 0.0 34.56409401068381" Properties=species:S:1:pos:R:3:initial_magmoms:R:1 pbc="T T T"
Si       0.81766026      -1.48074471      -1.72105089       0.00000000
Si      -0.85527387      -0.43305336       2.31990872       0.00000000
Si      -1.75350447       1.25118603      -1.30330902       0.00000000
Si       2.07976059       1.06192881       1.12471625       0.00000000
Si       2.31661719      -2.59680519      -0.28252706       0.00000000
Si      -2.16868770       1.50799788       2.44845266       0.00000000
Si      -2.50782921      -2.04703398       1.96099497       0.00000000
Si       1.97223030      -0.06385680      -3.26793322       0.00000000
Si      -0.28318536       2.83608478       2.77902384       0.00000000
Si      -0.84818772       2.49012198      -3.09780866       0.00000000
