10
Lattice="16.28999089631971 0.0 0.0 0.0 16.28999089631971 0.0 0.0 0.0 34.56409401068381" Properties=species:S:1:pos:R:3:initial_magmoms:R:1 pbc="T T T"
Si      -1.35674849       1.35710361      -1.35754012       0.00000000
Si       1.35765747      -1.35765747      -1.35754012       0.00000000
Si      -1.35880103      -1.35725022       1.35705622       0.00000000
Si       1.35848826       1.35791811       1.35674514       0.00000000
Si      -2.71541719      -0.00112401       2.71141643       0.00000000
Si       2.71350675      -0.00149868      -2.71452720       0.00000000
Si       0.00102627       2.71249677       2.71597890       0.00000000
Si      -2.71431878       2.71448415       0.00000000       0.00000000
Si       0.00034209      -2.71534752      -2.71369767       0.00000000
Si      -2.71447327      -2.71539639      -0.00031108       0.00000000
