10
Lattice="16.28999089631971 0.0 0.0 0.0 16.28999089631971 0.0 0.0 0.0 34.56409401068381" Properties=species:S:1:pos:R:3:initial_magmoms:R:1 pbc="T T T"
Si       1.37333238      -1.36094805      -1.32276862       0.00000000
Si      -1.33900542       1.37199267      -1.35214811       0.00000000
Si      -1.74651606      -0.90824895       1.28550850       0.00000000
Si       1.42999714       1.34291502       1.41802731       0.00000000
Si      -0.25360272       2.28955950       2.77097040       0.00000000
Si       2.13204239      -0.30885840       2.93532276       0.00000000
Si      -2.67193467      -2.67825157       0.05239920       0.00000000
Si      -2.75493222       2.63096532      -0.01531190       0.00000000
Si       0.00984851      -2.69453440      -2.69624279       0.00000000
Si      -3.41311338       0.86317452       1.46862918       0.00000000
