10
Lattice="16.28999089631971 0.0 0.0 0.0 16.28999089631971 0.0 0.0 0.0 34.56409401068381" Properties=species:S:1:pos:R:3:initial_magmoms:R:1 pbc="T T T"
Si       0.65818116       1.76779080      -1.48394108       0.00000000
Si      -0.88376508       0.85657707       2.06413428       0.00000000
Si       1.66659732      -1.77142347      -0.18312067       0.00000000
Si      -1.96120197      -0.68805702      -1.38491489       0.00000000
Si      -2.19375801      -1.38823380       2.07782167       0.00000000
Si      -3.40179183       0.74587023       0.61126634       0.00000000
Si       2.07410796       0.50881815      -2.82077729       0.00000000
Si      -2.28120273       2.74844880       0.13096343       0.00000000
Si      -0.66529989      -2.20057049      -2.79333338       0.00000000
Si       2.12177250       3.01969359      -0.13711584       0.00000000
