10
Lattice="16.28999089631971 0.0 0.0 0.0 16.28999089631971 0.0 0.0 0.0 34.56409401068381" Properties=species:S:1:pos:R:3:initial_magmoms:R:1 pbc="T T T"
Si      -1.35632169       1.34759025       1.34841519       0.00000000
Si       1.35114147       1.35824391      -1.36068545       0.00000000
Si      -1.36138788      -1.35806472      -1.36075458       0.00000000
Si       1.32501231      -1.38440565       1.40592987       0.00000000
Si      -2.65547688      -0.03409497       2.74922957       0.00000000
Si      -2.72009931       2.70974376      -0.01223570       0.00000000
Si       2.71019988       0.00237834      -2.72085244       0.00000000
Si       2.71280628       2.72150514       0.01503539       0.00000000
Si      -0.00540828      -2.71506407      -2.72296085       0.00000000
Si      -0.00509877       2.71655298      -2.72220044       0.00000000
