10
Lattice="16.28999089631971 0.0 0.0 0.0 16.28999089631971 0.0 0.0 0.0 34.56409401068381" Properties=species:S:1:pos:R:3:initial_magmoms:R:1 pbc="T T T"
Si       0.33169698       1.53601668      -1.76273522       0.00000000
Si      -1.52974503       1.14541506       1.38778371       0.00000000
Si       1.98382878       0.07351677       1.32180082       0.00000000
Si      -0.62838675      -2.31742517      -0.25981844       0.00000000
Si       1.15116543      -1.67176288       2.74027747       0.00000000
Si      -0.06519258       2.91224475       1.83445575       0.00000000
Si      -0.79521264      -2.83059927       2.03561889       0.00000000
Si       0.65389689       3.49314615      -0.42351408       0.00000000
Si       1.44780633      -3.08362274      -1.13041933       0.00000000
Si      -2.58448995      -2.00208010      -1.50969134       0.00000000
