10
Lattice="16.28999089631971 0.0 0.0 0.0 16.28999089631971 0.0 0.0 0.0 34.56409401068381" Properties=species:S:1:pos:R:3:initial_magmoms:R:1 pbc="T T T"
Si      -0.09283671       1.92103083       1.36331232       0.00000000
Si       2.02954571      -0.33140376      -1.19481227       0.00000000
Si      -1.98382878      -0.07351677      -1.32180082       0.00000000
Si      -0.83266335      -1.74527965       1.41847665       0.00000000
Si       1.03079929      -1.44260167      -3.05332464       0.00000000
Si      -2.04902136       2.83872798       0.51265493       0.00000000
Si       0.08876594       0.89718804       3.45343882       0.00000000
Si      -3.51357381       1.07189829       0.06598289       0.00000000
Si       0.85954904      -3.36017807       1.39998485       0.00000000
Si      -1.67992254      -0.61424703       3.31815488       0.00000000
