10
Lattice="16.28999089631971 0.0 0.0 0.0 16.28999089631971 0.0 0.0 0.0 34.56409401068381" Properties=species:S:1:pos:R:3:initial_magmoms:R:1 pbc="T T T"
Si       0.16682589       0.51317410      -2.29543733       0.00000000
Si       0.28100250      -2.26879694       0.58026233       0.00000000
Si      -1.72162494       0.98396161       1.27897589       0.00000000
Si       1.94637807       1.15883639       0.70465858       0.00000000
Si      -0.27495891      -2.20111199      -2.60433681       0.00000000
Si       0.79521264       2.83059927      -2.03561889       0.00000000
Si       1.44177903      -3.08355758      -1.26193578       0.00000000
Si       1.09911888       2.28986901       2.60433681       0.00000000
Si      -0.92631456       3.14634834       1.58549044       0.00000000
Si       3.63859046      -0.45606203       0.68616678       0.00000000
