10
Lattice="16.28999089631971 0.0 0.0 0.0 16.28999089631971 0.0 0.0 0.0 34.56409401068381" Properties=species:S:1:pos:R:3:initial_magmoms:R:1 pbc="T T T"
Si      -1.95610320       0.31534508      -1.24987290       0.00000000
Si      -0.16682589      -0.51317410       2.29543733       0.00000000
Si       2.07619308      -0.76619756      -0.87060089       0.00000000
Si       0.62838675       2.31742517       0.25981844       0.00000000
Si      -0.44178480      -2.71428608      -0.30889948       0.00000000
Si       1.77955218       0.64566229       3.00009591       0.00000000
Si       1.36793646      -1.46075429      -3.11699174       0.00000000
Si      -1.24672257       1.53065075      -3.20758428       0.00000000
Si       3.07789843      -2.11821869       0.85459770       0.00000000
Si      -3.59393238       1.34338091       0.20593299       0.00000000
