10
Lattice="16.28999089631971 0.0 0.0 0.0 16.28999089631971 0.0 0.0 0.0 34.56409401068381" Properties=species:S:1:pos:R:3:initial_magmoms:R:1 pbc="T T T"
Si      -0.79531038      -2.16238673      -0.30651456       0.00000000
Si       0.19178217       0.82966599      -2.23332562       0.00000000
Si       2.02543344      -0.85647933       1.01884637       0.00000000
Si      -1.64006091       1.45898127       1.03851335       0.00000000
Si      -3.50187759       0.14429682      -0.36779673       0.00000000
Si       1.65633462       2.59649568      -1.78665358       0.00000000
Si       2.87269263      -1.98751195      -0.88083186       0.00000000
Si       0.92631456      -3.14634834      -1.58549044       0.00000000
Si      -2.83299390      -1.92870831      -1.36839325       0.00000000
Si      -0.56439963       1.95248682       3.10389194       0.00000000
