10
Lattice="16.28999089631971 0.0 0.0 0.0 16.28999089631971 0.0 0.0 0.0 34.56409401068381" Properties=species:S:1:pos:R:3:initial_magmoms:R:1 pbc="T T T"
Si      -1.18496718      -1.51099198       1.41264019       0.00000000
Si       1.54751742       1.22582250       1.38454994       0.00000000
Si       0.89204040      -1.85748517      -1.27880306       0.00000000
Si      -1.34983827       1.45497393      -1.40921346       0.00000000
Si       0.73891440      -0.61413300      -3.31407631       0.00000000
Si      -2.55565665      -0.13901886       2.80060018       0.00000000
Si       0.15556950       2.58618411       2.78747619       0.00000000
Si      -2.79971343      -2.61984577      -0.09764362       0.00000000
Si       2.76739407      -2.65835207      -0.09207880       0.00000000
Si       3.27632855       2.00663478      -0.14572230       0.00000000
