10
Lattice="16.28999089631971 0.0 0.0 0.0 16.28999089631971 0.0 0.0 0.0 34.56409401068381" Properties=species:S:1:pos:R:3:initial_magmoms:R:1 pbc="T T T"
Si       1.31882211      -1.37122704       1.41916447       0.00000000
Si      -1.39194792       1.36036161       1.40292625       0.00000000
Si      -1.54751742      -1.22582250      -1.38454994       0.00000000
Si       1.72881113       0.78081228      -1.53027224       0.00000000
Si       2.58558531       2.57041539      -0.01349383       0.00000000
Si       2.69980264      -2.66644657      -0.02138482       0.00000000
Si      -2.73248460      -2.73681448       0.02809025       0.00000000
Si       2.68314123      -0.00734679       2.78534907       0.00000000
Si      -0.03640815       2.71376739       2.78483061       0.00000000
Si      -0.03134196      -2.72020031       2.78642056       0.00000000
