10
Lattice="16.28999089631971 0.0 0.0 0.0 16.28999089631971 0.0 0.0 0.0 34.56409401068381" Properties=species:S:1:pos:R:3:initial_magmoms:R:1 pbc="T T T"
Si       1.59584985      -1.07523774      -1.31426585       0.00000000
Si       1.70802279       0.86361435       1.37796751       0.00000000
Si      -1.15124688       1.80553473      -1.13909492       0.00000000
Si      -2.80712538      -1.34648253      -1.04618658       0.00000000
Si       0.13225851      -2.32714053      -2.66109109       0.00000000
Si      -1.40968773      -3.23835426       0.88698428       0.00000000
Si      -2.52824058       0.55433241      -2.57233044       0.00000000
Si       3.52147676      -0.69986727       0.97000728       0.00000000
Si       2.63358801      -2.66854635       0.12519122       0.00000000
Si       2.68172496       2.71951776       0.12066332       0.00000000
