10
Lattice="16.28999089631971 0.0 0.0 0.0 16.28999089631971 0.0 0.0 0.0 34.56409401068381" Properties=species:S:1:pos:R:3:initial_magmoms:R:1 pbc="T T T"
Si       1.53192789      -1.62427590       0.69183529       0.00000000
Si       1.48357917       0.87327432      -1.62043476       0.00000000
Si       0.09360234       1.63833417       1.71766361       0.00000000
Si      -2.22466014      -0.62959221      -0.57708244       0.00000000
Si       3.19628926      -0.35999271      -0.54193073       0.00000000
Si      -2.18545011       2.29557051       1.48978241       0.00000000
Si      -3.55354947       0.40904190       1.08683398       0.00000000
Si       0.81283842      -2.20517730       2.94980512       0.00000000
Si       1.82762397       3.14626689      -1.15648067       0.00000000
Si       1.20972798      -3.58140537      -0.64738584       0.00000000
