10
Lattice="16.28999089631971 0.0 0.0 0.0 16.28999089631971 0.0 0.0 0.0 34.56409401068381" Properties=species:S:1:pos:R:3:initial_magmoms:R:1 pbc="T T T"
Si      -0.25604622      -2.32521831      -0.28511937       0.00000000
Si      -1.94338071       0.67667031       1.22654213       0.00000000
Si       1.95076008      -0.00242721       1.41954813       0.00000000
Si      -0.62486811      -0.05789466      -2.36733069       0.00000000
Si      -2.88398160      -1.29516903       0.26244531       0.00000000
Si      -1.48362804       2.94938595       1.48985154       0.00000000
Si      -1.93486104      -2.30270553      -2.35364330       0.00000000
Si       1.61906310      -1.53844389       3.18228335       0.00000000
Si      -2.01411189      -0.26090064       3.40072855       0.00000000
Si       3.85789784      -0.99935892       0.33292154       0.00000000
