10
Lattice="16.28999089631971 0.0 0.0 0.0 16.28999089631971 0.0 0.0 0.0 34.56409401068381" Properties=species:S:1:pos:R:3:initial_magmoms:R:1 pbc="T T T"
Si       1.34996859       1.36205577       1.37555493       0.00000000
Si      -1.36226754      -1.35459495       1.37320457       0.00000000
Si      -1.36273995       1.27123902      -1.47711467       0.00000000
Si       1.27233045      -1.40566410      -1.48246865       0.00000000
Si       2.01569202       0.60300693      -2.39855902       0.00000000
Si      -2.24196012      -0.63372987      -2.67659938       0.00000000
Si       0.44354412       2.32096662      -2.73883411       0.00000000
Si      -0.58438746      -2.38195638      -2.84186973       0.00000000
Si      -2.70692559       2.70518256      -0.00410967       0.00000000
Si       2.70397712      -2.71839375      -0.01457569       0.00000000
