10
Lattice="16.28999089631971 0.0 0.0 0.0 16.28999089631971 0.0 0.0 0.0 34.56409401068381" Properties=species:S:1:pos:R:3:initial_magmoms:R:1 pbc="T T T"
Si       1.35568638      -1.35335691      -1.36130760       0.00000000
Si      -1.35695700      -1.35705474       1.35646863       0.00000000
Si       1.35785295       1.35848826       1.35601929       0.00000000
Si      -1.35624024       1.35850455      -1.35854247       0.00000000
Si      -2.71251306      -0.01332522      -2.70787361       0.00000000
Si      -2.71407690       2.71270854      -0.00124431       0.00000000
Si      -2.71393029       0.00008145       2.71321377       0.00000000
Si      -2.71391400      -2.71419093      -0.00020738       0.00000000
Si       0.00120546      -2.71459818       2.71355941       0.00000000
Si       0.00097740       2.71524978       2.71362854       0.00000000
