10
Lattice="16.28999089631971 0.0 0.0 0.0 16.28999089631971 0.0 0.0 0.0 34.56409401068381" Properties=species:S:1:pos:R:3:initial_magmoms:R:1 pbc="T T T"
Si      -1.35238277      -1.29603240       1.40814340       0.00000000
Si       1.60340841      -0.97526601      -1.52970396       0.00000000
Si      -0.73761120      -0.93758724      -2.11978251       0.00000000
Si       1.34526078       1.39574349       1.47020672       0.00000000
Si       2.49105051       1.14686487      -2.27093137       0.00000000
Si       2.62925487       2.60405424      -0.07583366       0.00000000
Si       0.11100006      -2.51214606       2.83466312       0.00000000
Si      -2.20915695      -3.08563551      -0.10863501       0.00000000
Si      -2.62005819       0.19538226       2.82145271       0.00000000
Si       3.04655580      -2.41282593      -0.24913813       0.00000000
