10
Lattice="16.28999089631971 0.0 0.0 0.0 16.28999089631971 0.0 0.0 0.0 34.56409401068381" Properties=species:S:1:pos:R:3:initial_magmoms:R:1 pbc="T T T"
Si      -1.35695037      -1.35721764       1.35581191       0.00000000
Si       1.35757029      -1.35738054      -1.35754012       0.00000000
Si       1.35739598       1.35826020       1.35709078       0.00000000
Si      -1.35838389       1.35876519      -1.35781663       0.00000000
Si      -2.71198515      -0.00081450       2.71096710       0.00000000
Si      -0.00109841      -2.71560816       2.71141643       0.00000000
Si       2.71431878      -2.71448415       0.00000000       0.00000000
Si      -2.71503138      -2.71432125      -0.00027651       0.00000000
Si      -2.71623684       0.00027693      -2.71383592       0.00000000
Si       2.71527989       2.71534752      -0.00010369       0.00000000
