10
Lattice="16.28999089631971 0.0 0.0 0.0 16.28999089631971 0.0 0.0 0.0 34.56409401068381" Properties=species:S:1:pos:R:3:initial_magmoms:R:1 pbc="T T T"
Si      -1.35673848      -1.35707103       1.35709078       0.00000000
Si       1.35969463      -1.35456237      -1.35788576       0.00000000
Si       1.35845985       1.35751086       1.35691796       0.00000000
Si      -1.35859554       1.35959598      -1.35512063       0.00000000
Si      -2.71260405       2.71448415       0.00038021       0.00000000
Si      -2.71361403      -0.00030951       2.71470002       0.00000000
Si       0.00177005       2.71446786       2.71476915       0.00000000
Si      -2.71459143      -2.71555929       0.00107149       0.00000000
Si       2.71554065       2.71515204       0.00010369       0.00000000
Si       0.00164542      -2.71583622       2.71490741       0.00000000
