10
Lattice="16.28999089631971 0.0 0.0 0.0 16.28999089631971 0.0 0.0 0.0 34.56409401068381" Properties=species:S:1:pos:R:3:initial_magmoms:R:1 pbc="T T T"
Si       1.07700846      -1.53295416       1.31976154       0.00000000
Si      -1.55262826       0.80975961       1.55604182       0.00000000
Si      -1.36447876      -1.44612846      -1.25046049       0.00000000
Si       1.53894399       1.37329587      -1.16325523       0.00000000
Si       0.43151721       1.84454928       2.48948026       0.00000000
Si       2.16720042       0.25073568       2.64529529       0.00000000
Si      -0.71287646      -2.60962542       2.40538577       0.00000000
Si       0.02174226       2.66320323      -2.52010407       0.00000000
Si      -2.70960922      -0.05983317      -2.55860849       0.00000000
Si      -2.85366169       2.40484383       0.37450217       0.00000000
