10
Lattice="16.28999089631971 0.0 0.0 0.0 16.28999089631971 0.0 0.0 0.0 34.56409401068381" Properties=species:S:1:pos:R:3:initial_magmoms:R:1 pbc="T T T"
Si      -1.71261168      -1.05715584      -1.19014611       0.00000000
Si      -0.99474885       1.41309234       1.59748419       0.00000000
Si       0.58228605      -2.03924736       1.06070351       0.00000000
Si       2.00787282       0.50339358      -1.22315484       0.00000000
Si       1.41822369      -0.73694331      -3.13406641       0.00000000
Si       2.72777679      -1.46012157       1.73867859       0.00000000
Si      -0.51472816      -2.09505690      -2.91282152       0.00000000
Si       0.84466908       2.34484776       2.73896403       0.00000000
Si      -0.73182988      -1.92520107       3.09863820       0.00000000
Si      -2.92070645       2.35986714       0.56208161       0.00000000
