10
Lattice="16.28999089631971 0.0 0.0 0.0 16.28999089631971 0.0 0.0 0.0 34.56409401068381" Properties=species:S:1:pos:R:3:initial_magmoms:R:1 pbc="T T T"
Si       2.20202030       0.37310616       0.61489558       0.00000000
Si      -1.67472996       1.04006763       1.30728389       0.00000000
Si       0.22732695      -2.13133473       1.07826208       0.00000000
Si       0.77229913       0.53238978      -2.74805439       0.00000000
Si       2.29044242      -0.89966412      -1.57335844       0.00000000
Si       1.41734729      -2.99853288      -0.69840247       0.00000000
Si       2.21032820      -1.41625260       2.18974027       0.00000000
Si      -3.30443043      -0.65345706       0.61219958       0.00000000
Si      -2.54727123       2.85914328       0.01420585       0.00000000
Si       2.45301662       2.36685622       1.92774429       0.00000000
