10
Lattice="10.86 0.0 0.0 0.0 10.86 0.0 0.0 0.0 10.86" Properties=species:S:1:pos:R:3:initial_magmoms:R:1 pbc="T T T"
Si       1.02069882      -1.13127534      -1.44234918       0.00000000
Si       1.02069882       1.58372466       1.27265082       0.00000000
Si      -1.69430118      -1.13127534       1.27265082       0.00000000
Si       2.37819882      -2.48877534      -0.08484918       0.00000000
Si       2.37819882       0.22622466       2.63015082       0.00000000
Si      -0.33680118      -2.48877534       2.63015082       0.00000000
Si       2.37819882       0.22622466      -2.79984918       0.00000000
Si      -0.33680118      -2.48877534      -2.79984918       0.00000000
Si       2.37819882       2.94122466      -0.08484918       0.00000000
Si      -3.00650412       0.56106018       2.44119768       0.00000000
