10
Lattice="10.86 0.0 0.0 0.0 10.86 0.0 0.0 0.0 10.86" Properties=species:S:1:pos:R:3:initial_magmoms:R:1 pbc="T T T"
Si      -1.35750000       1.35750000      -1.35750000       0.00000000
Si       1.35750000       1.35750000       1.35750000       0.00000000
Si       1.35750000      -1.35750000      -1.35750000       0.00000000
Si      -1.35750000      -1.35750000       1.35750000       0.00000000
Si      -2.68301730       2.54415048      -0.13516356       0.00000000
Si       2.72650074      -2.54790804      -0.00537570       0.00000000
Si       2.65743114      -0.02742150      -2.67946608       0.00000000
Si      -2.54190246      -0.06842886       2.79963198       0.00000000
Si      -2.37819882      -2.94122466       0.08484918       0.00000000
Si      -2.47559130       0.13483776      -2.86439016       0.00000000
