10
Lattice="10.86 0.0 0.0 0.0 10.86 0.0 0.0 0.0 10.86" Properties=species:S:1:pos:R:3:initial_magmoms:R:1 pbc="T T T"
Si      -1.40129838       1.15059528       1.19062524       0.00000000
Si       1.20601386      -1.58302962       1.20132234       0.00000000
Si       1.04031198       1.61893278      -1.40516454       0.00000000
Si      -0.12225102       2.52481968       2.55914814       0.00000000
Si       2.59274898      -0.19018032       2.55914814       0.00000000
Si      -2.83725102       2.52481968      -0.15585186       0.00000000
Si      -2.83725102      -0.19018032       2.55914814       0.00000000
Si      -0.12225102      -2.90518032       2.55914814       0.00000000
Si       2.59274898      -2.90518032      -0.15585186       0.00000000
Si      -0.25052934       2.74052100      -2.81408664       0.00000000
