10
Lattice="10.86 0.0 0.0 0.0 10.86 0.0 0.0 0.0 10.86" Properties=species:S:1:pos:R:3:initial_magmoms:R:1 pbc="T T T"
Si       1.29677088       1.25464494       1.36435266       0.00000000
Si       1.29677088      -1.46035506      -1.35064734       0.00000000
Si      -1.41822912      -1.46035506       1.36435266       0.00000000
Si       2.65427088       2.61214494       0.00685266       0.00000000
Si       0.11969892       2.28962466       2.98758600       0.00000000
Si       2.65427088      -0.10285506      -2.70814734       0.00000000
Si       2.65427088      -0.10285506       2.72185266       0.00000000
Si      -2.76819228      -0.03035370      -2.63598264       0.00000000
Si       2.65427088      -2.81785506       0.00685266       0.00000000
Si      -0.06072912      -2.81785506      -2.70814734       0.00000000
