10
Lattice="10.86 0.0 0.0 0.0 10.86 0.0 0.0 0.0 10.86" Properties=species:S:1:pos:R:3:initial_magmoms:R:1 pbc="T T T"
Si       1.35750000      -1.35750000      -1.35750000       0.00000000
Si       1.35750000       1.35750000       1.35750000       0.00000000
Si      -1.35750000      -1.35750000       1.35750000       0.00000000
Si      -1.35750000       1.35750000      -1.35750000       0.00000000
Si      -2.56858548       0.01383564       2.59496442       0.00000000
Si      -0.45086376       2.40822672       2.71438098       0.00000000
Si      -0.36714402      -2.31348408      -2.83557858       0.00000000
Si      -2.69755884       0.11876496      -2.64612588       0.00000000
Si       2.83516590      -0.23685660      -2.50922472       0.00000000
Si       2.71500000       2.71500000       0.00000000       0.00000000
