10
Lattice="10.86 0.0 0.0 0.0 10.86 0.0 0.0 0.0 10.86" Properties=species:S:1:pos:R:3:initial_magmoms:R:1 pbc="T T T"
Si      -0.90663624       1.66427328      -1.35688098       0.00000000
Si       1.80836376      -1.05072672      -1.35688098       0.00000000
Si      -1.08101526      -1.58498442       1.86366288       0.00000000
Si       1.80836376       1.66427328       1.35811902       0.00000000
Si      -2.11772172      -2.39439108      -0.11941656       0.00000000
Si      -2.06641908       0.25422174       2.86402092       0.00000000
Si      -2.26413624       0.30677328      -2.71438098       0.00000000
Si       0.45086376      -2.40822672      -2.71438098       0.00000000
Si      -2.26413624       3.02177328       0.00061902       0.00000000
Si      -3.62163624      -1.05072672      -1.35688098       0.00000000
