10
Lattice="10.86 0.0 0.0 0.0 10.86 0.0 0.0 0.0 10.86" Properties=species:S:1:pos:R:3:initial_magmoms:R:1 pbc="T T T"
Si      -1.27129332       1.34631420      -1.41532950       0.00000000
Si       1.44370668       1.34631420       1.29967050       0.00000000
Si       1.44370668      -1.36868580      -1.41532950       0.00000000
Si      -2.67295008       0.08690172       2.65279392       0.00000000
Si      -2.62879332       2.70381420      -0.05782950       0.00000000
Si       0.08620668       2.70381420       2.65717050       0.00000000
Si       0.31900164      -2.67438360      -2.70470472       0.00000000
Si       2.80120668      -0.01118580       2.65717050       0.00000000
Si       0.08620668       2.70381420      -2.77282950       0.00000000
Si       2.80120668       2.70381420      -0.05782950       0.00000000
