10
Lattice="16.28999089631971 0.0 0.0 0.0 16.28999089631971 0.0 0.0 0.0 34.31420841018396" Properties=species:S:1:pos:R:3:initial_magmoms:R:1 pbc="T T T"
Si      -1.30481271       1.34371470      -1.48134520       0.00000000
Si      -1.94878899      -1.02653962       0.92953811       0.00000000
Si       1.38901572      -1.39063741      -1.45880076       0.00000000
Si       1.55509227       1.31569101       1.44902120       0.00000000
Si      -2.52024219       2.75076019      -0.00703442       0.00000000
Si      -3.52974978       0.88173518       1.04926045       0.00000000
Si       2.77309557       2.63756098      -0.06705000       0.00000000
Si      -2.67905340      -0.03038983      -2.84574752       0.00000000
Si       0.03627783       2.68555132      -2.85089466       0.00000000
Si       2.57210955      -2.96052100      -0.01722574       0.00000000
