10
Lattice="16.28999089631971 0.0 0.0 0.0 16.28999089631971 0.0 0.0 0.0 34.31420841018396" Properties=species:S:1:pos:R:3:initial_magmoms:R:1 pbc="T T T"
Si       0.33234858      -0.47419213       2.22311586       0.00000000
Si       1.69513740      -0.36560950      -1.51047798       0.00000000
Si      -1.63507617      -1.32535603      -1.03258374       0.00000000
Si      -0.73031328       2.22995439       0.40689811       0.00000000
Si      -1.91935296      -2.49371297       0.95750421       0.00000000
Si      -3.09557241       0.47407158      -1.47722750       0.00000000
Si       3.53991474       0.19477953      -0.20533634       0.00000000
Si       1.61023392       1.44031293       2.81898242       0.00000000
Si      -1.98557181      -0.87880478       2.84193864       0.00000000
Si      -3.08710161       1.80789678       0.47844328       0.00000000
