10
Lattice="16.28999089631971 0.0 0.0 0.0 16.28999089631971 0.0 0.0 0.0 34.31420841018396" Properties=species:S:1:pos:R:3:initial_magmoms:R:1 pbc="T T T"
Si      -1.27856952      -1.60806396       1.26880772       0.00000000
Si       1.53725472       1.37045732       1.28184713       0.00000000
Si      -1.13161743       0.81565902      -2.02642671       0.00000000
Si       2.06083161      -0.66394443      -1.38042706       0.00000000
Si       1.18630296       1.22027167      -2.64524949       0.00000000
Si      -2.47803480      -0.01267023       2.69968699       0.00000000
Si       0.24524595      -2.71552332       2.71426711       0.00000000
Si       0.23219766       2.73689347       2.70331401       0.00000000
Si       3.03580440      -2.59553118      -0.19071848       0.00000000
Si       2.95073802       0.00321929       2.71634998       0.00000000
