10
Lattice="16.28999089631971 0.0 0.0 0.0 16.28999089631971 0.0 0.0 0.0 34.31420841018396" Properties=species:S:1:pos:R:3:initial_magmoms:R:1 pbc="T T T"
Si       2.09929230       0.99783092       0.24232708       0.00000000
Si       0.30529089      -0.93386076      -2.13516850       0.00000000
Si      -1.58089563       1.75352402      -0.07693250       0.00000000
Si       0.04137660      -1.40915409       1.93226847       0.00000000
Si       1.45323090       2.35105751       2.03033853       0.00000000
Si       0.97137270      -3.30291546       0.81986984       0.00000000
Si      -0.79535925       3.12018986       1.69179436       0.00000000
Si       2.37785130       2.51254028      -1.58940071       0.00000000
Si       3.63903939      -0.72750456       0.90613581       0.00000000
Si      -1.58006484       2.73067967      -2.17607106       0.00000000
