10
Lattice="16.28999089631971 0.0 0.0 0.0 16.28999089631971 0.0 0.0 0.0 34.31420841018396" Properties=species:S:1:pos:R:3:initial_magmoms:R:1 pbc="T T T"
Si      -1.41299460      -0.47982195       1.86072331       0.00000000
Si       2.17886895      -0.26394687       1.14149709       0.00000000
Si      -0.69447528       2.28762099      -0.65965671       0.00000000
Si       0.20219148      -1.94398344      -1.53569894       0.00000000
Si      -1.05961563      -0.56190726      -3.10221206       0.00000000
Si      -0.78754005       3.26032947       1.51003190       0.00000000
Si      -3.13105366      -1.80714744       0.86814996       0.00000000
Si      -2.19230820       1.64768463       2.53815479       0.00000000
Si       1.14173352       3.05613432      -2.01067648       0.00000000
Si       3.86555184       0.41054058      -0.40847657       0.00000000
