10
Lattice="16.28999089631971 0.0 0.0 0.0 16.28999089631971 0.0 0.0 0.0 34.31420841018396" Properties=species:S:1:pos:R:3:initial_magmoms:R:1 pbc="T T T"
Si       2.19911742      -0.62380926       0.48654143       0.00000000
Si      -0.73068795      -1.89861579      -1.17454170       0.00000000
Si      -1.01206512       0.16837344       2.11794276       0.00000000
Si      -0.09282042       2.06472492      -1.16342389       0.00000000
Si       0.03686427       3.41321112       0.87034607       0.00000000
Si      -1.65530835      -2.06009856       2.44519754       0.00000000
Si      -1.00924695      -3.41332515       0.65718609       0.00000000
Si       2.99183769      -1.33529130      -1.65185260       0.00000000
Si       0.74787390      -2.10833325      -3.05695159       0.00000000
Si      -3.22680465       0.95249259       1.75246192       0.00000000
