10
Lattice="16.28999089631971 0.0 0.0 0.0 16.28999089631971 0.0 0.0 0.0 34.31420841018396" Properties=species:S:1:pos:R:3:initial_magmoms:R:1 pbc="T T T"
Si      -0.84852981      -0.27709290      -2.23666998       0.00000000
Si      -1.68645483       0.68452209       1.58765068       0.00000000
Si       1.12314663      -1.87673832       1.14595794       0.00000000
Si       1.75925484       2.04615432      -0.55496400       0.00000000
Si       1.43058780      -0.43986258      -3.05070640       0.00000000
Si      -0.00289962       1.79571186       2.92448636       0.00000000
Si       2.08448469      -2.86438473      -0.82426206       0.00000000
Si       0.93729402       3.37685184       1.33523522       0.00000000
Si       3.28556268      -1.02858318      -1.76759449       0.00000000
Si       2.61151506      -0.99777879       2.81205923       0.00000000
