10
Lattice="16.28999089631971 0.0 0.0 0.0 16.28999089631971 0.0 0.0 0.0 34.31420841018396" Properties=species:S:1:pos:R:3:initial_magmoms:R:1 pbc="T T T"
Si      -1.49938047       1.24752078       1.23514062       0.00000000
Si       1.32550101       1.38064266      -1.35970127       0.00000000
Si      -1.38875508      -1.33519356      -1.35966695       0.00000000
Si       1.45989351      -1.37347506       1.52770373       0.00000000
Si      -2.63282238      -0.23340312       2.70622587       0.00000000
Si       2.69913897      -2.70112635       0.02268170       0.00000000
Si       2.68350057       0.02197521      -2.71923097       0.00000000
Si       2.67716376       2.73375522       0.02738275       0.00000000
Si      -0.03258000      -2.69280216      -2.72022608       0.00000000
Si      -2.75739201      -2.68962561       0.00905896       0.00000000
