10
Lattice="16.28999089631971 0.0 0.0 0.0 16.28999089631971 0.0 0.0 0.0 34.31420841018396" Properties=species:S:1:pos:R:3:initial_magmoms:R:1 pbc="T T T"
Si      -1.52428788       1.81278378      -0.22263071       0.00000000
Si      -1.61991018      -1.56822201      -0.76095231       0.00000000
Si       0.58826448      -0.85243941       2.15057559       0.00000000
Si       2.01246660       0.13954014      -1.33152929       0.00000000
Si       0.88801677      -1.29674916      -3.05835848       0.00000000
Si      -0.28390212      -3.06548478      -1.95155307       0.00000000
Si      -1.15831674       3.05525466       1.62707773       0.00000000
Si      -3.20469912      -0.15667722      -1.87983633       0.00000000
Si       1.47331647       0.93090834       3.37631411       0.00000000
Si      -1.23251769       3.17457891      -2.17034058       0.00000000
