10
Lattice="16.28999089631971 0.0 0.0 0.0 16.28999089631971 0.0 0.0 0.0 34.31420841018396" Properties=species:S:1:pos:R:3:initial_magmoms:R:1 pbc="T T T"
Si       0.95053779      -1.94904963       0.81983553       0.00000000
Si      -1.68445116      -0.82025037      -1.38193689       0.00000000
Si      -0.92999610       1.89376137       1.11239863       0.00000000
Si       2.09336274       0.62793063      -1.11023683       0.00000000
Si       2.74983345      -0.93511116       1.90605240       0.00000000
Si      -0.97137270       3.30291546      -0.81986984       0.00000000
Si       1.36264221      -3.10717089      -1.21338540       0.00000000
Si       2.50230690       1.42408809       2.18262507       0.00000000
Si       2.66766669       2.57541090       0.08626597       0.00000000
Si      -0.92206287      -2.98691811      -2.02961793       0.00000000
