10
Lattice="16.28999089631971 0.0 0.0 0.0 16.28999089631971 0.0 0.0 0.0 34.31420841018396" Properties=species:S:1:pos:R:3:initial_magmoms:R:1 pbc="T T T"
Si      -0.00847080      -1.33382520      -1.95567077       0.00000000
Si      -1.18392462       2.05698717      -0.11382029       0.00000000
Si       2.35678833       0.42205761      -0.07154516       0.00000000
Si      -0.92672181      -1.43234712       1.86823812       0.00000000
Si       3.08710161      -1.80789678      -0.47844328       0.00000000
Si       1.10152980      -2.68670155       2.36349537       0.00000000
Si       1.45202544      -3.13325281      -1.51102701       0.00000000
Si      -1.97386256      -2.66993263      -1.87609608       0.00000000
Si      -2.61495225      -2.74939362       0.43946231       0.00000000
Si       2.94104547       2.05413642      -1.70541711       0.00000000
