10
Lattice="16.28999089631971 0.0 0.0 0.0 16.28999089631971 0.0 0.0 0.0 34.31420841018396" Properties=species:S:1:pos:R:3:initial_magmoms:R:1 pbc="T T T"
Si       1.46049624      -1.79942761       0.44464376       0.00000000
Si       0.00847080       1.33382520       1.95567077       0.00000000
Si      -1.96539176      -1.33610743       0.07957469       0.00000000
Si       1.03684221       1.09752246      -1.90045918       0.00000000
Si       3.09557241      -0.47407158       1.47722750       0.00000000
Si       2.36525913       1.75588281       1.88412561       0.00000000
Si      -0.81984312       1.37663532      -3.28586181       0.00000000
Si      -2.60648145      -1.41556842       2.39513309       0.00000000
Si      -0.91825101      -0.09852192       3.82390889       0.00000000
Si      -3.44869793      -0.83465399      -1.72768704       0.00000000
