10
Lattice="16.28999089631971 0.0 0.0 0.0 16.28999089631971 0.0 0.0 0.0 34.31420841018396" Properties=species:S:1:pos:R:3:initial_magmoms:R:1 pbc="T T T"
Si       0.36387788      -2.29925761      -0.08592283       0.00000000
Si       1.96539176       1.33610743      -0.07957469       0.00000000
Si      -1.48330617       0.50145344      -1.80726174       0.00000000
Si      -0.64108969      -0.07946099       2.31555839       0.00000000
Si       3.42588800      -0.46332018       0.36506907       0.00000000
Si      -2.73797826       0.87394384       2.19463505       0.00000000
Si       1.25816141      -2.60490688      -2.22016484       0.00000000
Si      -2.14964862       2.75293018      -1.32274485       0.00000000
Si      -0.11580398       0.76301383      -3.69420111       0.00000000
Si      -1.69222542      -3.38524675       0.13478629       0.00000000
