10
Lattice="16.28999089631971 0.0 0.0 0.0 16.28999089631971 0.0 0.0 0.0 34.31420841018396" Properties=species:S:1:pos:R:3:initial_magmoms:R:1 pbc="T T T"
Si      -2.25471519      -0.66517250       0.06056461       0.00000000
Si       0.98031591      -1.08719201       1.89685619       0.00000000
Si       0.16772184       2.26273964       0.80518335       0.00000000
Si       0.59302116      -0.54279648      -2.28549913       0.00000000
Si       2.46138642       2.55793073       0.30539663       0.00000000
Si      -0.75328218      -0.78533831       3.42805996       0.00000000
Si      -2.42007498      -1.81649531       2.15692372       0.00000000
Si       2.69465922       0.56497304      -2.67939215       0.00000000
Si       1.13803569      -2.87474258      -2.32973017       0.00000000
Si      -0.58609791       3.84967886      -0.77388877       0.00000000
