10
Lattice="16.28999089631971 0.0 0.0 0.0 16.28999089631971 0.0 0.0 0.0 34.31420841018396" Properties=species:S:1:pos:R:3:initial_magmoms:R:1 pbc="T T T"
Si       1.45810161      -1.77968250       0.27828839       0.00000000
Si      -1.49727906      -0.09110997      -1.78516338       0.00000000
Si      -1.07577531       0.42808491       2.04993196       0.00000000
Si       1.61174889       1.53924210      -0.75951111       0.00000000
Si       0.27531729      -3.34391346      -1.00925006       0.00000000
Si      -1.51003413       2.69571807       1.75647668       0.00000000
Si       0.71526132       0.02469564       3.57722391       0.00000000
Si       1.34661285      -2.13022701       2.64518086       0.00000000
Si       3.04453584       1.69705962       1.16912005       0.00000000
Si      -0.12838149      -0.50709141      -3.66819093       0.00000000
