10
Lattice="16.28999089631971 0.0 0.0 0.0 16.28999089631971 0.0 0.0 0.0 34.31420841018396" Properties=species:S:1:pos:R:3:initial_magmoms:R:1 pbc="T T T"
Si       0.62853336      -2.22759234      -0.56975343       0.00000000
Si      -0.69278112       0.39853485       2.25808206       0.00000000
Si       1.94303862       1.38388437      -0.37416234       0.00000000
Si      -2.21951250       0.61871049      -0.86917938       0.00000000
Si      -0.80734869       2.80003923       1.94520493       0.00000000
Si      -1.00567944      -3.69002709       0.26092539       0.00000000
Si      -0.75100158       3.90955113      -0.17469373       0.00000000
Si       3.01881393       0.95579946      -2.42409429       0.00000000
Si       2.72007162      -2.89960371       0.41341781       0.00000000
Si       1.50877980       3.65151753      -0.66761761       0.00000000
