10
Lattice="16.28999089631971 0.0 0.0 0.0 16.28999089631971 0.0 0.0 0.0 34.31420841018396" Properties=species:S:1:pos:R:3:initial_magmoms:R:1 pbc="T T T"
Si       2.31792039       0.40461265      -0.61882278       0.00000000
Si      -2.02825161       1.25435444      -0.49525725       0.00000000
Si       1.13161743      -0.81565902       2.02642671       0.00000000
Si       0.06621885      -1.61490819      -1.88443444       0.00000000
Si      -1.84767696       2.38191566       1.81889426       0.00000000
Si       1.98557181       0.87880478      -2.84193864       0.00000000
Si       3.19244904      -1.47960345       0.64599965       0.00000000
Si      -1.10152980       2.68670155      -2.36349537       0.00000000
Si       0.35049564      -0.44655125      -3.87452238       0.00000000
Si      -0.14695209      -2.42372298       3.29523443       0.00000000
