10
Lattice="16.28999089631971 0.0 0.0 0.0 16.28999089631971 0.0 0.0 0.0 34.31420841018396" Properties=species:S:1:pos:R:3:initial_magmoms:R:1 pbc="T T T"
Si      -1.05979482      -1.71471798      -1.20069398       0.00000000
Si       1.22699538      -1.44435285       1.51489766       0.00000000
Si      -1.49408622       1.25252181       1.48746343       0.00000000
Si       1.35417141       1.31520573      -1.66582334       0.00000000
Si       2.53555479       2.58455511       0.02925974       0.00000000
Si       2.53892682      -2.83318938       0.12882247       0.00000000
Si       0.62553600      -3.62297745      -1.14820587       0.00000000
Si      -1.55714481      -0.88513344      -3.41053024       0.00000000
Si       2.58077583      -0.11323179       2.88854766       0.00000000
Si      -0.13354542       2.60205057       2.88563095       0.00000000
