10
Lattice="16.28999089631971 0.0 0.0 0.0 16.28999089631971 0.0 0.0 0.0 34.31420841018396" Properties=species:S:1:pos:R:3:initial_magmoms:R:1 pbc="T T T"
Si       1.23924546      -1.32765129      -1.50502202       0.00000000
Si      -1.17191889      -1.76873562       1.10680541       0.00000000
Si       1.12444983       1.43628930       1.72682919       0.00000000
Si      -1.45989351       1.37347506      -1.52770373       0.00000000
Si      -2.50792695      -0.27147285       2.29740617       0.00000000
Si      -0.88801677       1.29674916       3.05835848       0.00000000
Si       2.40036408       2.53734669      -0.05874596       0.00000000
Si       2.68332138      -2.68785000       0.07950607       0.00000000
Si       2.58488091       0.03308499      -2.89169427       0.00000000
Si      -0.13559796      -2.67643071      -2.88376769       0.00000000
