10
Lattice="16.28999089631971 0.0 0.0 0.0 16.28999089631971 0.0 0.0 0.0 34.31420841018396" Properties=species:S:1:pos:R:3:initial_magmoms:R:1 pbc="T T T"
Si      -0.91517220       1.02482019       1.82606594       0.00000000
Si      -0.73964745       0.87286707      -1.99101443       0.00000000
Si       2.30215167       0.67737078       0.14871786       0.00000000
Si      -0.15084540      -2.38583340      -0.30731822       0.00000000
Si       2.83595868      -1.42255683       1.06696659       0.00000000
Si       1.20031236       0.37175409      -3.18803194       0.00000000
Si       2.10893598      -2.64386700      -0.80024210       0.00000000
Si      -0.14243976      -0.33348888       3.57887099       0.00000000
Si      -3.21189930       0.85081041       1.61956291       0.00000000
Si       2.79081909       1.59620823      -2.00278421       0.00000000
