10
Lattice="16.28999089631971 0.0 0.0 0.0 16.28999089631971 0.0 0.0 0.0 34.31420841018396" Properties=species:S:1:pos:R:3:initial_magmoms:R:1 pbc="T T T"
Si       1.37055915      -1.28917431       1.33230136       0.00000000
Si       1.50651549       1.12840830      -1.37346683       0.00000000
Si      -1.27303092      -1.15437456      -1.59852627       0.00000000
Si      -1.35809730       1.44437591       1.30854219       0.00000000
Si      -0.19280844       2.07204469      -2.67746853       0.00000000
Si       0.54208233      -1.99710513      -2.95853637       0.00000000
Si      -2.24800371       0.77721219      -2.78823486       0.00000000
Si       0.00708615      -2.62946664       2.68246327       0.00000000
Si       2.67618636      -2.64696210      -0.17390794       0.00000000
Si      -2.76527637      -2.59107111      -0.23329557       0.00000000
