10
Lattice="16.28999089631971 0.0 0.0 0.0 16.28999089631971 0.0 0.0 0.0 34.31420841018396" Properties=species:S:1:pos:R:3:initial_magmoms:R:1 pbc="T T T"
Si      -1.35660521       1.35682668      -1.35705907       0.00000000
Si      -1.35670295      -1.35743104       1.35716202       0.00000000
Si       1.35639233       1.35798327       1.35764241       0.00000000
Si       1.35728665      -1.35752389      -1.35747084       0.00000000
Si       2.71306752      -0.00011403      -2.71422109       0.00000000
Si      -2.71429526      -0.00032580      -2.71404952       0.00000000
Si      -0.00145988       2.71498914      -2.71418677       0.00000000
Si      -2.71471880      -2.71492207      -0.00006863       0.00000000
Si      -0.00140555      -2.71613326      -2.71370637       0.00000000
Si      -2.71510976       2.71524978       0.00003431       0.00000000
