10
Lattice="16.28999089631971 0.0 0.0 0.0 16.28999089631971 0.0 0.0 0.0 34.31420841018396" Properties=species:S:1:pos:R:3:initial_magmoms:R:1 pbc="T T T"
Si      -2.01246660      -0.13954014       1.33152929       0.00000000
Si       1.27591425       1.10105739      -1.78557515       0.00000000
Si      -1.12444983      -1.43628930      -1.72682919       0.00000000
Si       1.85329701       1.06968285       1.36920631       0.00000000
Si       2.97789345      -1.08667332       1.47908047       0.00000000
Si       3.20334705       1.91451483      -0.63879366       0.00000000
Si      -1.42420212      -0.99197955       3.48210487       0.00000000
Si      -2.29636872      -3.20502492      -0.62002378       0.00000000
Si      -3.63237678      -1.70776215       0.57057698       0.00000000
Si      -3.53675448       1.67324364       1.10889858       0.00000000
