10
Lattice="16.28999089631971 0.0 0.0 0.0 16.28999089631971 0.0 0.0 0.0 34.31420841018396" Properties=species:S:1:pos:R:3:initial_magmoms:R:1 pbc="T T T"
Si      -0.58935591       0.74424123      -2.12209478       0.00000000
Si       1.59050673       1.22445414       1.18524774       0.00000000
Si      -1.93995981       0.50111298       1.19701752       0.00000000
Si       0.97981092      -2.14526268       0.17081622       0.00000000
Si      -1.20031236      -0.37175409       3.18803194       0.00000000
Si       1.10183931       0.30561669       3.33674980       0.00000000
Si       1.37062431       1.80206496      -3.01306370       0.00000000
Si      -3.73925547      -0.51282549       0.11080064       0.00000000
Si      -2.59643052       2.06415477      -1.81927172       0.00000000
Si      -1.47440790      -1.03910652      -3.34783330       0.00000000
