10
Lattice="16.28999089631971 0.0 0.0 0.0 16.28999089631971 0.0 0.0 0.0 34.31420841018396" Properties=species:S:1:pos:R:3:initial_magmoms:R:1 pbc="T T T"
Si       1.35637056       1.35733167       1.35681887       0.00000000
Si      -1.35745710       1.35695700      -1.35681887       0.00000000
Si       1.35728280      -1.35765747      -1.35777967       0.00000000
Si      -1.35885804      -1.35716877       1.35774536       0.00000000
Si      -2.71175462       0.00221544       2.71463286       0.00000000
Si       0.00022806       2.71472850      -2.71353480       0.00000000
Si       0.00485442       2.71199178       2.71631426       0.00000000
Si      -0.00218286      -2.71526607      -2.71411815       0.00000000
Si       2.71477737       2.71464705       0.00020589       0.00000000
Si       2.71476108      -2.71489140       0.00058334       0.00000000
