10
Lattice="16.28999089631971 0.0 0.0 0.0 16.28999089631971 0.0 0.0 0.0 34.31420841018396" Properties=species:S:1:pos:R:3:initial_magmoms:R:1 pbc="T T T"
Si       1.35694071      -1.35708012      -1.35678456       0.00000000
Si      -1.35710361       1.35707727      -1.35753947       0.00000000
Si       1.35801585       1.35749104       1.35723064       0.00000000
Si      -1.35721764      -1.35740592       1.35826007       0.00000000
Si       2.71331325      -0.00121118      -2.71363775       0.00000000
Si       0.00042354       2.71459627      -2.71398089       0.00000000
Si       2.71580242      -0.00266436       2.71319166       0.00000000
Si       2.71457922      -2.71465614      -0.00006863       0.00000000
Si      -0.00237834      -2.71522629      -2.71411815       0.00000000
Si       2.71471880       2.71492207       0.00006863       0.00000000
