10
Lattice="16.28999089631971 0.0 0.0 0.0 16.28999089631971 0.0 0.0 0.0 34.31420841018396" Properties=species:S:1:pos:R:3:initial_magmoms:R:1 pbc="T T T"
Si      -0.44440749       0.10174734       2.24092495       0.00000000
Si      -2.02888692      -0.98912880      -0.52569397       0.00000000
Si       1.32032961       1.87119972      -0.62602877       0.00000000
Si       2.55019528      -1.37526696      -0.27369028       0.00000000
Si      -0.43293933      -2.31840583      -1.82260020       0.00000000
Si       2.37114375       0.33243003      -2.05624577       0.00000000
Si       3.29257457       0.00138465       1.53343420       0.00000000
Si       0.89256168      -0.99844668      -3.43694735       0.00000000
Si      -0.15266988       3.04922736      -2.12171732       0.00000000
Si       1.22923479      -3.49313705      -0.44093782       0.00000000
