10
Lattice="16.28999089631971 0.0 0.0 0.0 16.28999089631971 0.0 0.0 0.0 34.31420841018396" Properties=species:S:1:pos:R:3:initial_magmoms:R:1 pbc="T T T"
Si       1.36750219       0.26156038      -1.88693937       0.00000000
Si       1.48330617      -0.50145344       1.80726174       0.00000000
Si      -1.59625710      -1.63097502      -0.72004975       0.00000000
Si      -0.66634245       2.25147674       0.48451689       0.00000000
Si      -0.16889472       1.16369570      -3.44998676       0.00000000
Si      -2.16305136      -2.68269000       1.22999349       0.00000000
Si       1.84718404      -2.80071105       1.72133891       0.00000000
Si       2.62885481       2.21128931      -1.55817476       0.00000000
Si       2.26713536      -1.89052359      -2.38995164       0.00000000
Si      -3.38564844      -0.47906284      -1.69001002       0.00000000
