10
Lattice="16.28999089631971 0.0 0.0 0.0 16.28999089631971 0.0 0.0 0.0 34.31420841018396" Properties=species:S:1:pos:R:3:initial_magmoms:R:1 pbc="T T T"
Si       0.88090197       1.56276486       1.55450314       0.00000000
Si      -2.26874088      -0.06983523       0.69791707       0.00000000
Si       0.20321775       0.63576612      -2.29685714       0.00000000
Si       0.01962945      -2.38925430       0.25210663       0.00000000
Si       0.61054920      -2.84815989      -1.93820483       0.00000000
Si      -0.83372220      -1.29862251      -3.20916951       0.00000000
Si       1.28893063       0.08982306       3.39570165       0.00000000
Si      -0.71087931       2.83108797      -2.26216545       0.00000000
Si       2.81737898      -1.34166069       2.14391863       0.00000000
Si      -0.68230665       3.40690689       1.58874874       0.00000000
