10
Lattice="16.28999089631971 0.0 0.0 0.0 16.28999089631971 0.0 0.0 0.0 34.31420841018396" Properties=species:S:1:pos:R:3:initial_magmoms:R:1 pbc="T T T"
Si      -1.16074395       1.92376755      -0.70752506       0.00000000
Si      -0.98380197      -1.70865810      -1.33461757       0.00000000
Si       2.30152355       0.13238883      -0.62228852       0.00000000
Si      -0.81357147      -0.44518941       2.21402259       0.00000000
Si       1.99152648       1.04614380      -2.84749755       0.00000000
Si       0.23113881       2.68260462      -2.47755586       0.00000000
Si      -1.93523571      -2.55404394       1.78204078       0.00000000
Si      -3.20930919       1.00735731      -1.54317944       0.00000000
Si      -3.26837673      -1.32291090      -1.15433062       0.00000000
Si      -1.78463466       3.10028022       1.36862297       0.00000000
