10
Lattice="16.28999089631971 0.0 0.0 0.0 16.28999089631971 0.0 0.0 0.0 34.31420841018396" Properties=species:S:1:pos:R:3:initial_magmoms:R:1 pbc="T T T"
Si       1.35567009       1.35449721       1.35863753       0.00000000
Si      -1.35796698      -1.35628911       1.35709339       0.00000000
Si      -1.35754344       1.35778779      -1.35647573       0.00000000
Si       1.35785295      -1.35783666      -1.35712770       0.00000000
Si      -2.71054197      -0.00509877       2.71456423       0.00000000
Si      -2.71423980      -0.00143352      -2.71374069       0.00000000
Si      -0.00087966      -2.71502172      -2.71322598       0.00000000
Si      -0.00188964       2.71487511      -2.71353480       0.00000000
Si      -2.71435383       2.71490769       0.00106374       0.00000000
Si      -2.71451673      -2.71479366       0.00106374       0.00000000
