10
Lattice="16.28999089631971 0.0 0.0 0.0 16.28999089631971 0.0 0.0 0.0 34.31420841018396" Properties=species:S:1:pos:R:3:initial_magmoms:R:1 pbc="T T T"
Si       0.94327245      -1.66578282      -1.42596204       0.00000000
Si      -0.90407871      -0.38263581       2.20914997       0.00000000
Si      -1.57169178       1.39069359      -1.20933632       0.00000000
Si       1.89843660       1.27433412       0.84666925       0.00000000
Si      -1.73255553       2.97274581       0.58330755       0.00000000
Si       2.18212042      -0.15752430      -2.74517252       0.00000000
Si       0.59305374       3.46817358       0.68789732       0.00000000
Si      -2.16301878       1.63649340       2.46485960       0.00000000
Si       2.41627194      -2.84381046       0.06972651       0.00000000
Si      -0.44753517       2.74538628      -2.76421692       0.00000000
