10
Lattice="16.28999089631971 0.0 0.0 0.0 16.28999089631971 0.0 0.0 0.0 34.31420841018396" Properties=species:S:1:pos:R:3:initial_magmoms:R:1 pbc="T T T"
Si       1.35637254       1.35586894      -1.35685319       0.00000000
Si      -1.35694071       1.35708012       1.35678456       0.00000000
Si       1.35763851      -1.35757602       1.35671593       0.00000000
Si      -1.35931905      -1.35814617      -1.35733359       0.00000000
Si       2.71290632      -0.00255753       2.71339755       0.00000000
Si      -2.71160082      -0.00109143      -2.71511326       0.00000000
Si      -2.71404432       2.71415739      -0.00075491       0.00000000
Si       0.00107514       2.71457116       2.71401520       0.00000000
Si      -2.71415835      -0.00032580       2.71504463       0.00000000
Si       2.71506474       2.71447830      -0.00061766       0.00000000
