10
Lattice="16.28999089631971 0.0 0.0 0.0 16.28999089631971 0.0 0.0 0.0 34.31420841018396" Properties=species:S:1:pos:R:3:initial_magmoms:R:1 pbc="T T T"
Si      -0.77931360       2.12750658       0.67743148       0.00000000
Si       1.41299460       0.47982195      -1.86072331       0.00000000
Si      -1.71805906      -1.32732549      -0.99257335       0.00000000
Si       0.45787932      -0.89635725       2.19665959       0.00000000
Si       3.59186355       0.21587508      -0.71922621       0.00000000
Si       0.62545455       3.74015142      -0.35069141       0.00000000
Si       0.71851932       2.76744294      -2.52038002       0.00000000
Si      -2.98986660       2.40215598      -0.21442961       0.00000000
Si      -0.58143897       2.40854166       3.00616654       0.00000000
Si      -1.00392012      -3.52932624      -1.31701437       0.00000000
