10
Lattice="16.28999089631971 0.0 0.0 0.0 16.28999089631971 0.0 0.0 0.0 34.31420841018396" Properties=species:S:1:pos:R:3:initial_magmoms:R:1 pbc="T T T"
Si       1.48367691      -1.15567776      -1.45368794       0.00000000
Si      -0.84243735      -1.92524994       1.15920324       0.00000000
Si      -1.22704425       1.52851743      -1.44267307       0.00000000
Si       1.32766758       1.35739098       1.56692489       0.00000000
Si       1.10229543      -3.35323134       1.24172895       0.00000000
Si       2.65316859       2.67735014      -0.04742226       0.00000000
Si       2.88298272      -2.44211535      -0.04673598       0.00000000
Si       0.12575880      -2.52245763      -2.81661474       0.00000000
Si      -2.58738957       0.19236861      -2.81606572       0.00000000
Si      -2.56888413       2.85937460      -0.03740251       0.00000000
