10
Lattice="16.28999089631971 0.0 0.0 0.0 16.28999089631971 0.0 0.0 0.0 34.31420841018396" Properties=species:S:1:pos:R:3:initial_magmoms:R:1 pbc="T T T"
Si      -1.87608672      -1.19961189      -0.67297063       0.00000000
Si       1.74138212      -1.37818287       0.70182890       0.00000000
Si       0.73612881       1.06987833      -1.95525900       0.00000000
Si      -0.52571088       1.36164852       1.85097806       0.00000000
Si       1.47546644       2.60094285       1.85907622       0.00000000
Si      -3.42565668       0.60302322      -0.68360804       0.00000000
Si       3.08015297       0.56347110       1.66348512       0.00000000
Si       2.11968805      -2.50202997      -1.40647156       0.00000000
Si       1.72143665      -0.82253097      -3.04919658       0.00000000
Si      -1.21800330       2.27388852      -2.66731354       0.00000000
