10
Lattice="16.28999089631971 0.0 0.0 0.0 16.28999089631971 0.0 0.0 0.0 34.31420841018396" Properties=species:S:1:pos:R:3:initial_magmoms:R:1 pbc="T T T"
Si       1.32868571      -1.22596911       1.47527845       0.00000000
Si       1.70091221       0.71952930      -1.54384312       0.00000000
Si      -0.95744312      -1.98667953      -1.10079424       0.00000000
Si      -1.38438840       1.48498011       1.44190100       0.00000000
Si       2.51360402       2.59823871       0.00277259       0.00000000
Si       2.73364933      -2.49768054       0.07968793       0.00000000
Si      -0.03520269      -2.57719203       2.82228002       0.00000000
Si       2.67682981       0.13528845       2.83144192       0.00000000
Si      -2.72556039       2.85026130       0.04501684       0.00000000
Si      -2.75253663       0.13722696       2.82385848       0.00000000
