10
Lattice="16.28999089631971 0.0 0.0 0.0 16.28999089631971 0.0 0.0 0.0 34.31420841018396" Properties=species:S:1:pos:R:3:initial_magmoms:R:1 pbc="T T T"
Si       1.35720135       1.35770634       1.35647573       0.00000000
Si       1.35317772      -1.35759231      -1.36138267       0.00000000
Si      -1.35768516      -1.35777150       1.35671593       0.00000000
Si      -1.35448906       1.35879777      -1.36282386       0.00000000
Si       0.00939933       2.71002069      -2.70982544       0.00000000
Si      -0.00022806      -2.71472850       2.71353480       0.00000000
Si       2.71454931      -0.00008145       2.71374069       0.00000000
Si       2.71300176       2.71546155      -0.00089217       0.00000000
Si       0.00000000       2.71474479       2.71394657       0.00000000
Si      -2.71514903       0.00013032       2.71387795       0.00000000
