10
Lattice="16.28999089631971 0.0 0.0 0.0 16.28999089631971 0.0 0.0 0.0 34.31420841018396" Properties=species:S:1:pos:R:3:initial_magmoms:R:1 pbc="T T T"
Si       0.19787463       0.28103508       2.32873506       0.00000000
Si       0.77931360      -2.12750658      -0.67743148       0.00000000
Si       1.40476815       1.61264484      -1.02812289       0.00000000
Si      -2.21055300       0.27464940      -0.89186109       0.00000000
Si       1.49783292       0.63993636      -3.19781150       0.00000000
Si       1.23719292      -3.02386383       1.51922811       0.00000000
Si       2.19230820      -1.64768463      -2.53815479       0.00000000
Si      -0.01570356      -1.86391809       3.24276314       0.00000000
Si      -1.11720893       2.12812560       2.88133138       0.00000000
Si      -2.91485834       2.45928501      -0.20832168       0.00000000
