10
Lattice="16.28999089631971 0.0 0.0 0.0 16.28999089631971 0.0 0.0 0.0 34.31420841018396" Properties=species:S:1:pos:R:3:initial_magmoms:R:1 pbc="T T T"
Si      -1.40476815      -1.61264484       1.02812289       0.00000000
Si       0.09306477      -0.97270848      -2.16968861       0.00000000
Si      -0.76238829       2.16666774       0.64768105       0.00000000
Si       2.28470508      -0.12025278       0.81623253       0.00000000
Si       1.87260066       1.03786848       2.84945346       0.00000000
Si       0.78754005      -3.26032947      -1.51003190       0.00000000
Si       0.92206287       2.98691811       2.02961793       0.00000000
Si      -1.20689352      -1.33160976       3.35685794       0.00000000
Si      -0.62545455      -3.74015142       0.35069141       0.00000000
Si      -3.61532115      -1.33799544       0.13626180       0.00000000
