10
Lattice="16.28999089631971 0.0 0.0 0.0 16.28999089631971 0.0 0.0 0.0 34.31420841018396" Properties=species:S:1:pos:R:3:initial_magmoms:R:1 pbc="T T T"
Si      -1.83457070       0.05787837      -1.45711936       0.00000000
Si       1.76551020       0.34052616      -1.55213546       0.00000000
Si       0.39825140      -1.67949900       1.64272502       0.00000000
Si      -0.98530784       1.89240930       1.09393758       0.00000000
Si       1.07079546       2.97839844       0.87322846       0.00000000
Si      -3.22547606      -1.27189062       0.05541748       0.00000000
Si       1.96507899       2.67274917      -1.26101355       0.00000000
Si      -1.72143665       0.82253097       3.04919658       0.00000000
Si      -1.15542431      -1.29539709      -3.25521920       0.00000000
Si       1.04574469      -0.57195819      -3.59108686       0.00000000
