10
Lattice="16.28999089631971 0.0 0.0 0.0 16.28999089631971 0.0 0.0 0.0 34.31420841018396" Properties=species:S:1:pos:R:3:initial_magmoms:R:1 pbc="T T T"
Si      -1.35759914       1.35261094       1.36189738       0.00000000
Si       1.35998531      -1.36109466       1.36127972       0.00000000
Si       1.35413720       1.33825608      -1.38948602       0.00000000
Si      -1.34438994      -1.37039625      -1.38123688       0.00000000
Si       2.55360248      -0.25713765      -2.82036529       0.00000000
Si      -2.71265220       2.71332009       0.00106374       0.00000000
Si       0.00109306       2.71122030       2.71813291       0.00000000
Si      -2.71253817      -2.71814940       0.00072060       0.00000000
Si       2.71798487       2.71271898      -0.00374025       0.00000000
Si      -2.71397169      -0.00325800       2.71875057       0.00000000
