10
Lattice="16.28999089631971 0.0 0.0 0.0 16.28999089631971 0.0 0.0 0.0 34.31420841018396" Properties=species:S:1:pos:R:3:initial_magmoms:R:1 pbc="T T T"
Si      -1.35526781      -1.35501849      -1.35668162       0.00000000
Si      -1.35404461       1.35697329       1.35657867       0.00000000
Si       1.36189776      -1.35488817       1.35808850       0.00000000
Si       1.35991038       1.35919901      -1.35620122       0.00000000
Si       2.69169933       0.00490329       2.71240243       0.00000000
Si      -2.71290632       0.00255753      -2.71339755       0.00000000
Si       0.00298270      -2.71306692      -2.71415246       0.00000000
Si      -2.71183118       2.71712869       0.00061766       0.00000000
Si       2.71732350      -2.71166598       0.00037746       0.00000000
Si      -2.71466564      -2.71596654       0.00144120       0.00000000
