10
Lattice="16.28999089631971 0.0 0.0 0.0 16.28999089631971 0.0 0.0 0.0 34.31420841018396" Properties=species:S:1:pos:R:3:initial_magmoms:R:1 pbc="T T T"
Si       1.32980157       1.35979146       1.35431393       0.00000000
Si       1.35542574      -1.35677781      -1.35771104       0.00000000
Si      -1.36189776       1.35488817      -1.35808850       0.00000000
Si      -1.36429890      -1.37487600       1.38722128       0.00000000
Si       2.60306055      -0.13276350       2.59841057       0.00000000
Si       2.71153566       2.71371852       0.00370594       0.00000000
Si       2.71288773      -0.00026064      -2.71422109       0.00000000
Si      -2.71594237       2.71186146      -0.00150983       0.00000000
Si      -0.00198738       2.71408718      -2.71428972       0.00000000
Si       2.71368594      -2.71547784       0.00360299       0.00000000
