10
Lattice="16.28999089631971 0.0 0.0 0.0 16.28999089631971 0.0 0.0 0.0 34.31420841018396" Properties=species:S:1:pos:R:3:initial_magmoms:R:1 pbc="T T T"
Si       1.24807790       1.37106416      -1.47355588       0.00000000
Si      -1.31601648       1.30797297       1.53662543       0.00000000
Si      -1.42287546      -1.31680215      -1.45869781       0.00000000
Si       1.84779425      -1.20449889       1.17447307       0.00000000
Si       1.06848065      -0.66106449       3.31279847       0.00000000
Si      -1.24032549      -0.05541858       3.59921933       0.00000000
Si       0.00494401       3.42584306       1.70387297       0.00000000
Si       3.11240324       2.22886200      -0.33305389       0.00000000
Si       2.58136553      -0.03719007      -2.87745387       0.00000000
Si      -2.97819060       2.48270418       0.15496305       0.00000000
