10
Lattice="16.28999089631971 0.0 0.0 0.0 16.28999089631971 0.0 0.0 0.0 34.31420841018396" Properties=species:S:1:pos:R:3:initial_magmoms:R:1 pbc="T T T"
Si      -0.89428353       0.30564927       2.13424201       0.00000000
Si      -0.19956879      -2.33222301      -0.29112191       0.00000000
Si       2.18077488       0.52072614       0.74698642       0.00000000
Si      -0.47433222       1.21583673      -1.97704854       0.00000000
Si       2.80228725      -1.73043783       1.30672010       0.00000000
Si      -1.96507899      -2.67274917       1.26101355       0.00000000
Si       3.00931686       1.49193594      -1.24447409       0.00000000
Si      -1.25816141       2.60490688       2.22016484       0.00000000
Si       1.59470955       1.12049136      -3.09751101       0.00000000
Si      -2.08412207       0.11132586      -3.23607186       0.00000000
