10
Lattice="10.86 0.0 0.0 0.0 10.86 0.0 0.0 0.0 10.86" Properties=species:S:1:pos:R:3:initial_magmoms:R:1 pbc="T T T"
Si      -1.29543510      -1.36719798       1.18255626       0.00000000
Si       1.39646568       1.14318876       1.54102314       0.00000000
Si      -1.29543510       1.34780202      -1.53244374       0.00000000
Si       1.41956490      -1.36719798      -1.53244374       0.00000000
Si       2.70049104       2.35019088      -0.17961354       0.00000000
Si       0.16495254      -2.53936122       2.62586112       0.00000000
Si      -2.65293510      -0.00969798       2.54005626       0.00000000
Si       1.55405514      -0.81046008       3.32398536       0.00000000
Si      -2.65293510       2.70530202      -0.17494374       0.00000000
Si      -2.65293510      -2.72469798      -0.17494374       0.00000000
