10
Lattice="10.86 0.0 0.0 0.0 10.86 0.0 0.0 0.0 10.86" Properties=species:S:1:pos:R:3:initial_magmoms:R:1 pbc="T T T"
Si       1.33493292       1.12260906       1.37569050       0.00000000
Si       1.33493292      -1.59239094      -1.33930950       0.00000000
Si      -1.38006708      -1.59239094       1.37569050       0.00000000
Si       0.00369240       2.56410030      -2.52651384       0.00000000
Si      -2.63887140       2.48816718      -0.11021814       0.00000000
Si       2.69243292       2.48010906       0.01819050       0.00000000
Si      -0.02256708       2.48010906       2.73319050       0.00000000
Si       2.69243292      -0.23489094      -2.69680950       0.00000000
Si       2.69243292      -0.23489094       2.73319050       0.00000000
Si      -2.73756708      -0.23489094       2.73319050       0.00000000
