10
Lattice="10.86 0.0 0.0 0.0 10.86 0.0 0.0 0.0 10.86" Properties=species:S:1:pos:R:3:initial_magmoms:R:1 pbc="T T T"
Si       1.43310732      -1.23735582      -1.44157812       0.00000000
Si       1.43310732       1.47764418       1.27342188       0.00000000
Si      -1.28189268       1.47764418      -1.44157812       0.00000000
Si      -0.02024304      -2.36655690       2.52396174       0.00000000
Si      -2.63109564       2.59449744      -0.16412718       0.00000000
Si       2.79060732      -2.59485582      -0.08407812       0.00000000
Si       0.07560732      -2.59485582      -2.79907812       0.00000000
Si      -2.78354832      -2.61470790      -0.00266070       0.00000000
Si      -0.11206434       2.86900566       2.54353146       0.00000000
Si       2.79060732       0.12014418       2.63092188       0.00000000
