10
Lattice="10.86 0.0 0.0 0.0 10.86 0.0 0.0 0.0 10.86" Properties=species:S:1:pos:R:3:initial_magmoms:R:1 pbc="T T T"
Si       1.17824484      -0.60779076      -1.69337808       0.00000000
Si      -1.51417722      -1.14698976       1.35069078       0.00000000
Si       1.20082278       1.56801024       1.35069078       0.00000000
Si      -1.51417722       1.56801024      -1.36430922       0.00000000
Si       2.43706002      -2.15564484      -0.22569252       0.00000000
Si      -0.15667722      -2.50448976       2.70819078       0.00000000
Si       2.55832278       0.21051024       2.70819078       0.00000000
Si       0.01183740      -2.53893768      -2.74944792       0.00000000
Si      -2.87167722      -2.50448976      -0.00680922       0.00000000
Si       0.02990844       2.81182776      -2.63482062       0.00000000
