10
Lattice="10.86 0.0 0.0 0.0 10.86 0.0 0.0 0.0 10.86" Properties=species:S:1:pos:R:3:initial_magmoms:R:1 pbc="T T T"
Si       1.17091434       1.47118248       1.27051140       0.00000000
Si      -1.54408566      -1.24381752       1.27051140       0.00000000
Si       1.78802298      -1.44457548      -0.77084280       0.00000000
Si      -1.54408566       1.47118248      -1.44448860       0.00000000
Si       2.57224530       0.10106316       2.61130872       0.00000000
Si       0.12005730      -2.50492416      -2.69962224       0.00000000
Si       1.14833640      -3.41961852       0.94144254       0.00000000
Si       2.52841434       2.82868248      -0.08698860       0.00000000
Si       2.53671138      -0.12696426      -2.88203766       0.00000000
Si      -0.02990844      -2.81182776       2.63482062       0.00000000
