10
Lattice="16.290000149 0.0 0.0 0.0 16.290000149 0.0 0.0 0.0 29.1751946751" Properties=species:S:1:pos:R:3:initial_magmoms:R:1 pbc="T T T"
Si      -1.34385985      -1.37831320       1.31349644       0.00000000
Si       1.30424257      -1.34599384      -1.43194773       0.00000000
Si       1.22929228       1.43346137       1.42672537       0.00000000
Si      -1.40056534       1.34104331      -1.36043933       0.00000000
Si       0.20144214      -2.70270650       2.49859285       0.00000000
Si       2.64236834       2.71736750       0.04513403       0.00000000
Si      -2.70871751      -0.00869886       2.65783106       0.00000000
Si      -0.29178648       2.75037105       2.62401701       0.00000000
Si       2.65940768       0.00886176      -2.76615856       0.00000000
Si      -0.06537177       2.70506855      -2.72971874       0.00000000
