10
Lattice="16.290000149 0.0 0.0 0.0 16.290000149 0.0 0.0 0.0 29.1751946751" Properties=species:S:1:pos:R:3:initial_magmoms:R:1 pbc="T T T"
Si      -1.37010304       1.38719125       1.31104572       0.00000000
Si      -1.36024759      -1.34594497      -1.36758725       0.00000000
Si       1.35379675       1.34719930      -1.37458930       0.00000000
Si       1.34749252      -1.33364602       1.40726552       0.00000000
Si       0.01309716       2.73746937       2.65141252       0.00000000
Si       2.67121793      -2.72797229       0.04242073       0.00000000
Si      -2.69544116      -2.70997022       0.00169216       0.00000000
Si      -0.06558354      -2.61755216       2.78885686       0.00000000
Si      -0.01001835      -2.69567085      -2.74071779       0.00000000
Si       2.72782568       2.71130762      -0.04294589       0.00000000
