10
Lattice="16.290000149 0.0 0.0 0.0 16.290000149 0.0 0.0 0.0 29.1751946751" Properties=species:S:1:pos:R:3:initial_magmoms:R:1 pbc="T T T"
Si      -0.43740279       0.25119180      -2.28345467       0.00000000
Si       0.81029719       1.85945465       1.18081962       0.00000000
Si      -1.87478354      -0.80024626       1.19705853       0.00000000
Si       1.63356121      -1.73555291       0.08381187       0.00000000
Si       2.18525465       0.59513887       2.59842190       0.00000000
Si      -0.67105027      -2.19945953       2.63694775       0.00000000
Si      -2.15829470       1.87980086      -2.17959098       0.00000000
Si      -0.47798118      -2.03872610      -2.95363807       0.00000000
Si       1.71963758      -2.42680277      -2.14618538       0.00000000
Si       0.64922167      -3.52237859       1.24078339       0.00000000
