10
Lattice="16.290000149 0.0 0.0 0.0 16.290000149 0.0 0.0 0.0 29.1751946751" Properties=species:S:1:pos:R:3:initial_magmoms:R:1 pbc="T T T"
Si       1.35545833       1.36796905       1.33774103       0.00000000
Si      -1.32827521       1.36076887      -1.37432672       0.00000000
Si       1.38419389      -1.35488330      -1.33464846       0.00000000
Si      -1.34736546      -1.35374951       1.37628146       0.00000000
Si       2.71037909       0.00123804       2.67489855       0.00000000
Si      -2.69827562      -0.00834048      -2.69958076       0.00000000
Si       0.05857884      -2.69192252       2.70938363       0.00000000
Si       0.02749752      -2.71761185      -2.68508069       0.00000000
Si      -2.69386103       2.71208954      -0.02456551       0.00000000
Si      -0.02257794       2.71371854       2.69532118       0.00000000
