10
Lattice="16.290000149 0.0 0.0 0.0 16.290000149 0.0 0.0 0.0 29.1751946751" Properties=species:S:1:pos:R:3:initial_magmoms:R:1 pbc="T T T"
Si       0.34661862      -0.88251076      -2.13527415       0.00000000
Si      -1.82327456       1.45583731       0.16609438       0.00000000
Si       1.62106678       1.68736709       0.07098325       0.00000000
Si       0.22731066      -1.51338988       1.83713283       0.00000000
H       -0.90345970      -1.45425718       2.84207241       0.00000000
Si       1.05959935       2.72383463       2.08039561       0.00000000
Si       2.28980387      -0.81953362       2.73803367       0.00000000
Si       1.40199886       0.87980662      -3.31739469       0.00000000
Si      -3.65229948       0.16159680       0.80471022       0.00000000
H       -1.82089622       0.29973600       3.28299713       0.00000000
