10
Lattice="16.290000149 0.0 0.0 0.0 16.290000149 0.0 0.0 0.0 29.1751946751" Properties=species:S:1:pos:R:3:initial_magmoms:R:1 pbc="T T T"
Si       1.34813109      -1.33563340       1.37566878       0.00000000
Si      -1.27184697       1.36132273       1.42267002       0.00000000
Si       1.34208750       1.36840888      -1.36324015       0.00000000
Si      -1.37901041      -1.36166482      -1.33412330       0.00000000
Si       2.66069785       0.13188384       2.65570127       0.00000000
Si      -2.66313484       2.71684622       0.07182933       0.00000000
Si       0.01729998      -2.69905917      -2.68227987       0.00000000
Si      -2.68310638       0.01883124      -2.70920858       0.00000000
Si      -0.06100279      -2.63155016       2.76344526       0.00000000
Si       2.72012377       0.02265939      -2.72082031       0.00000000
