10
Lattice="16.290000149 0.0 0.0 0.0 16.290000149 0.0 0.0 0.0 29.1751946751" Properties=species:S:1:pos:R:3:initial_magmoms:R:1 pbc="T T T"
Si       1.38349342      -1.34359921      -1.33593216       0.00000000
Si      -1.29674917       1.30344436      -1.46091870       0.00000000
Si       1.38798946       1.35853714       1.33044723       0.00000000
Si      -1.34959393      -1.39100311       1.34529740       0.00000000
Si      -2.77913919       0.05282847       2.46667518       0.00000000
Si      -2.65903301       2.67312386      -0.19877060       0.00000000
Si       2.71041167      -0.01557324       2.66538744       0.00000000
Si       0.01819593      -2.68323995      -2.70845002       0.00000000
Si      -2.70909218      -2.69917157      -0.04440465       0.00000000
Si       2.72789085       0.02796993      -2.69902643       0.00000000
