10
Lattice="16.290000149 0.0 0.0 0.0 16.290000149 0.0 0.0 0.0 29.1751946751" Properties=species:S:1:pos:R:3:initial_magmoms:R:1 pbc="T T T"
Si      -1.30409596       1.38049606      -1.37508528       0.00000000
Si       1.37901041       1.36166482       1.33412330       0.00000000
Si       1.39631039      -1.33739435      -1.34815657       0.00000000
Si      -1.38311875      -1.33728521       1.38124124       0.00000000
Si       0.08599716      -2.63048104       2.65284210       0.00000000
Si      -2.67719636      -0.00343719      -2.68478894       0.00000000
Si      -2.62782137       2.75131587      -0.00145876       0.00000000
Si       0.02580336      -2.70958088      -2.67834122       0.00000000
Si      -2.61511517       0.09291816       2.79743437       0.00000000
Si       2.72714150       0.02603142       2.70979208       0.00000000
