10
Lattice="16.290000149 0.0 0.0 0.0 16.290000149 0.0 0.0 0.0 29.1751946751" Properties=species:S:1:pos:R:3:initial_magmoms:R:1 pbc="T T T"
Si       1.35492076      -1.36673101       1.33715752       0.00000000
Si      -1.35545833      -1.36796905      -1.33774103       0.00000000
Si       1.37513665       1.33646419      -1.36198561       0.00000000
Si      -1.37803627       1.34574949       1.35758016       0.00000000
Si       2.64818387       0.06999813       2.65047891       0.00000000
Si       0.02873556      -2.72285235      -2.67238948       0.00000000
Si      -2.68373354      -0.00720018      -2.71206775       0.00000000
Si      -2.70703150       2.70498710      -0.00799400       0.00000000
Si      -2.70282379      -2.72171856       0.03854043       0.00000000
Si       0.03209130       2.71958294      -2.70573673       0.00000000
