10
Lattice="16.290000149 0.0 0.0 0.0 16.290000149 0.0 0.0 0.0 29.1751946751" Properties=species:S:1:pos:R:3:initial_magmoms:R:1 pbc="T T T"
Si      -1.31745702       0.25503624       1.91503060       0.00000000
Si       2.20996658      -0.08267175       0.80914485       0.00000000
Si      -1.29308881      -0.15807816      -2.02499191       0.00000000
Si      -0.54649693       2.37933371       0.73731552       0.00000000
Si      -0.48337317      -1.99063802       1.68218337       0.00000000
H        2.05237712       0.71294815       2.08518034       0.00000000
H       -2.43276165       0.80544277      -1.73440697       0.00000000
H        0.22149513      -1.63043353      -2.65497189       0.00000000
H        0.65083438       2.74310571       1.62683803       0.00000000
H        0.76414762      -1.97159501       2.54051760       0.00000000
