10
Lattice="16.290000149 0.0 0.0 0.0 16.290000149 0.0 0.0 0.0 29.1751946751" Properties=species:S:1:pos:R:3:initial_magmoms:R:1 pbc="T T T"
H       -0.91422739       0.72734851       0.98098675       0.00000000
Si       1.16168878       1.63818757      -1.19548278       0.00000000
Si       1.39968080      -1.18713376       1.45479191       0.00000000
Si      -1.58498443      -1.14873823      -1.33972494       0.00000000
Si      -1.97832278       2.43074495       1.76059579       0.00000000
Si      -0.61626700       2.77711923      -2.23324445       0.00000000
Si       2.62468555       0.39542346      -2.51224684       0.00000000
Si      -2.22303116       2.94036132      -0.54306707       0.00000000
Si      -0.05380587      -2.37291545       2.87349702       0.00000000
Si       2.86131409      -2.47573793       0.11503779       0.00000000
