10
Lattice="16.290000149 0.0 0.0 0.0 16.290000149 0.0 0.0 0.0 29.1751946751" Properties=species:S:1:pos:R:3:initial_magmoms:R:1 pbc="T T T"
Si      -2.24098274       0.54455842      -0.27523879       0.00000000
Si       0.98006505      -0.79596525      -2.03879178       0.00000000
Si       0.30336770      -1.79769779       1.57729855       0.00000000
Si       1.34109707       2.00062379       0.47634340       0.00000000
Si       1.64546106      -0.57356439       3.05518554       0.00000000
Si       2.98019037       0.83746891       1.70434193       0.00000000
Si       2.85387771      -1.93730456      -1.00491041       0.00000000
H        1.06967797      -2.27050022      -2.65357148       0.00000000
Si      -1.01195110      -1.62422216      -3.12130820       0.00000000
Si       1.48160972      -3.36803898       0.28273681       0.00000000
