10
Lattice="16.290000149 0.0 0.0 0.0 16.290000149 0.0 0.0 0.0 29.1751946751" Properties=species:S:1:pos:R:3:initial_magmoms:R:1 pbc="T T T"
Si       1.37103157      -1.34574949      -1.33864546       0.00000000
Si       1.37849239       1.33543792       1.34450967       0.00000000
Si      -1.34993602      -1.36474363       1.35670490       0.00000000
Si      -1.34584723       1.35915616      -1.36919189       0.00000000
Si      -0.00013032       2.70140330       2.65648900       0.00000000
Si      -0.01461213      -2.69596244      -2.66369527       0.00000000
Si      -2.72116307      -0.00804726       2.68948615       0.00000000
Si       2.74165590       0.01262475      -2.67673659       0.00000000
Si      -2.69273702       0.00224802      -2.73176100       0.00000000
Si       2.73484668       2.69101028      -0.01321636       0.00000000
