10
Lattice="16.290000149 0.0 0.0 0.0 16.290000149 0.0 0.0 0.0 29.1751946751" Properties=species:S:1:pos:R:3:initial_magmoms:R:1 pbc="T T T"
Si       1.44664975      -1.19184157      -1.35552302       0.00000000
Si      -1.34306164      -1.46137591       1.23621456       0.00000000
Si      -1.34363016       1.25183764      -1.45906578       0.00000000
Si       1.42675966       1.35896068       1.28157032       0.00000000
Si      -2.70314633      -0.00392589       2.52390846       0.00000000
Si       0.08993709      -2.54223371      -2.69160106       0.00000000
Si      -2.52187219       2.82217883      -0.16450404       0.00000000
Si       0.09899433       2.67455738       2.70172835       0.00000000
Si       2.75690334      -0.03557736       2.65077971       0.00000000
Si       0.04212594      -2.80134246       2.60821602       0.00000000
