10
Lattice="16.290000149 0.0 0.0 0.0 16.290000149 0.0 0.0 0.0 29.1751946751" Properties=species:S:1:pos:R:3:initial_magmoms:R:1 pbc="T T T"
Si      -1.34789547      -1.35360127       1.35769686       0.00000000
Si      -1.36843716       1.35676153      -1.34089195       0.00000000
Si       1.33039232      -1.34934958      -1.39136503       0.00000000
Si       1.31423916       1.36632376       1.39445760       0.00000000
Si       0.02985719       2.69161301      -2.67568628       0.00000000
Si       2.68130575      -2.70850574      -0.03145086       0.00000000
Si      -2.69186935       0.01141929       2.70885848       0.00000000
Si       2.68995574       2.71450046       0.04373362       0.00000000
Si      -2.71863382      -2.70153362       0.00195474       0.00000000
Si       2.70324838       0.01715337       2.72470061       0.00000000
