10
Lattice="16.290000149 0.0 0.0 0.0 16.290000149 0.0 0.0 0.0 29.1751946751" Properties=species:S:1:pos:R:3:initial_magmoms:R:1 pbc="T T T"
Si       1.35265645       1.39764943      -1.32088360       0.00000000
Si      -1.35202114       1.36914193       1.35877634       0.00000000
Si       1.37622808      -1.34744365       1.35947655       0.00000000
Si      -1.36212094      -1.36811566      -1.36344729       0.00000000
Si       2.73484668       0.04114854      -2.64532074       0.00000000
Si      -2.70853181      -2.69707016       0.01756347       0.00000000
Si       2.68988627       2.72225450       0.08440384       0.00000000
Si      -2.69878061       0.02145393       2.72738472       0.00000000
Si       0.02093265      -2.69128721       2.73543708       0.00000000
Si      -2.71755321       2.71736750      -0.01327471       0.00000000
