10
Lattice="16.290000149 0.0 0.0 0.0 16.290000149 0.0 0.0 0.0 29.1751946751" Properties=species:S:1:pos:R:3:initial_magmoms:R:1 pbc="T T T"
Si       1.38900922      -1.34917039       1.33024300       0.00000000
Si       1.37571658       1.34817670      -1.35072399       0.00000000
Si      -1.31423916      -1.36632376      -1.39445760       0.00000000
Si      -1.36965344       1.33985251       1.38045351       0.00000000
Si      -2.66213463      -2.71992503      -0.03676075       0.00000000
Si       0.02891964      -2.69944850       2.68400121       0.00000000
Si      -2.70175191       2.70614369       0.00825658       0.00000000
Si       0.02983514       2.70914757      -2.70629106       0.00000000
Si      -2.68267632      -0.00956223      -2.73534955       0.00000000
Si       2.70727748      -2.71202438      -0.06065523       0.00000000
