10
Lattice="16.290000149 0.0 0.0 0.0 16.290000149 0.0 0.0 0.0 29.1751946751" Properties=species:S:1:pos:R:3:initial_magmoms:R:1 pbc="T T T"
Si      -1.37103157       1.34574949       1.33864546       0.00000000
Si      -1.38564370      -1.35021295      -1.32504982       0.00000000
Si       1.36272367      -1.36572103       1.33590299       0.00000000
Si       1.37062432       1.35837424      -1.33809113       0.00000000
Si       0.00746082       2.68118741       2.68315513       0.00000000
Si      -0.05462037      -2.76957370      -2.61071312       0.00000000
Si      -0.00174303      -2.71329663       2.68613100       0.00000000
Si       2.69799869      -0.00050499      -2.70454055       0.00000000
Si      -2.72096759      -0.01899414       2.69535036       0.00000000
Si      -2.71687880       2.70490565      -0.03054643       0.00000000
