10
Lattice="16.290000149 0.0 0.0 0.0 16.290000149 0.0 0.0 0.0 29.1751946751" Properties=species:S:1:pos:R:3:initial_magmoms:R:1 pbc="T T T"
Si      -1.41947803       1.37239993      -1.25342471       0.00000000
Si      -1.30215745      -1.23668794       1.50018851       0.00000000
Si       1.18330561      -1.45140643      -1.41213777       0.00000000
Si       1.85515409       0.93139705       1.10681936       0.00000000
Si       3.45685206      -0.84543472       1.01719316       0.00000000
Si      -0.04336398       2.69278589      -2.61689826       0.00000000
Si       2.57841380      -2.73442314      -0.05225277       0.00000000
Si       2.56728773      -0.11587077      -2.75291302       0.00000000
Si       0.14431311      -2.58893714       2.78378038       0.00000000
Si      -2.77606038      -0.00943191      -2.60388612       0.00000000
