10
Lattice="16.290000149 0.0 0.0 0.0 16.290000149 0.0 0.0 0.0 29.1751946751" Properties=species:S:1:pos:R:3:initial_magmoms:R:1 pbc="T T T"
Si       0.84639583      -1.87198166      -1.11755583       0.00000000
Si       1.48691863       1.25411824       1.37342229       0.00000000
Si      -1.38489436       1.31940856      -1.42115291       0.00000000
Si      -1.31230612      -1.36251190       1.48495906       0.00000000
H        1.38175039      -1.61210728      -2.50226892       0.00000000
H        2.66005928       0.13913289      -2.07254748       0.00000000
Si      -2.73031805       2.51190173       0.09376908       0.00000000
Si       0.01534518       2.55140189       2.72382535       0.00000000
H       -0.20668752      -0.78566671      -3.67989648       0.00000000
Si       2.53731413      -2.79997410       0.19427762       0.00000000
