10
Lattice="16.290000149 0.0 0.0 0.0 16.290000149 0.0 0.0 0.0 29.1751946751" Properties=species:S:1:pos:R:3:initial_magmoms:R:1 pbc="T T T"
Si      -1.43355259       1.34658354      -1.26144789       0.00000000
Si      -1.38003994      -1.34359921       1.33502773       0.00000000
Si       1.34648254       1.38784937       1.33949154       0.00000000
Si       1.35395965      -1.32903595      -1.40148883       0.00000000
Si      -0.10072107       2.68651424      -2.59100236       0.00000000
Si      -0.01075140      -2.69171075       2.67656153       0.00000000
Si       2.70003494      -2.67401981      -0.03591466       0.00000000
Si       2.70651836       0.03479544       2.69217026       0.00000000
Si      -2.73062757       0.03297096       2.68394286       0.00000000
Si      -0.06892299      -2.78824530      -2.62601551       0.00000000
