10
Lattice="16.290000149 0.0 0.0 0.0 16.290000149 0.0 0.0 0.0 29.1751946751" Properties=species:S:1:pos:R:3:initial_magmoms:R:1 pbc="T T T"
Si       1.21642611      -1.28757627      -1.60405220       0.00000000
Si      -1.29001847       1.34697124      -1.49978006       0.00000000
Si      -1.44198788      -1.41603758       1.34448050       0.00000000
Si       1.31507347       1.69924250       1.13803682       0.00000000
H        2.82965741       0.22688712       0.50805684       0.00000000
H        0.17540062       2.66276342       1.42862176       0.00000000
H       -0.97360151       0.87195484       3.34747431       0.00000000
Si      -2.62974066      -2.57121460      -0.34458822       0.00000000
Si       3.43975049      -1.07977614       0.95294938       0.00000000
Si       2.59416917      -2.73996174      -0.44521347       0.00000000
