10
Lattice="16.290000149 0.0 0.0 0.0 16.290000149 0.0 0.0 0.0 29.1751946751" Properties=species:S:1:pos:R:3:initial_magmoms:R:1 pbc="T T T"
Si       1.33697733       1.35047359      -1.37000879       0.00000000
Si      -1.37928021       1.39555991       1.29788771       0.00000000
Si       1.34740293      -1.35277048       1.38582175       0.00000000
Si      -1.37950905      -1.35992179      -1.35685078       0.00000000
Si      -0.11724565      -2.73484668       2.60117283       0.00000000
Si      -2.69082295       0.05862771       2.66413290       0.00000000
Si       2.68601740      -2.68353317      -0.02231902       0.00000000
Si       2.68060912       2.69687631       0.01861377       0.00000000
Si      -0.06896697       2.68864661      -2.70311096       0.00000000
Si       2.68859122      -0.01089801      -2.73103162       0.00000000
