10
Lattice="16.290000149 0.0 0.0 0.0 16.290000149 0.0 0.0 0.0 29.1751946751" Properties=species:S:1:pos:R:3:initial_magmoms:R:1 pbc="T T T"
Si      -1.36054081       1.35153244       1.35299965       0.00000000
Si      -1.35988921      -1.34376211      -1.36335685       0.00000000
Si       1.32372541      -1.36456444       1.39276544       0.00000000
Si       1.35583300       1.37759644      -1.35620892       0.00000000
Si       2.69462666      -2.70441695       0.02701623       0.00000000
Si       2.69682581       0.01936881       2.70246911       0.00000000
Si       0.01348812       2.71564076       2.68464306       0.00000000
Si       0.00280188      -2.70634895      -2.70903353       0.00000000
Si      -2.72435591      -2.69133771      -0.01312884       0.00000000
Si      -2.71515206       2.70314633      -0.01610471       0.00000000
