10
Lattice="16.290000149 0.0 0.0 0.0 16.290000149 0.0 0.0 0.0 29.1751946751" Properties=species:S:1:pos:R:3:initial_magmoms:R:1 pbc="T T T"
Si      -1.34685721      -1.29062413       1.37123415       0.00000000
Si       1.25481871       1.31900131       1.47007971       0.00000000
Si       1.36485766      -1.36961434      -1.34433462       0.00000000
Si      -1.42526098       1.36508735      -1.29642895       0.00000000
Si       2.41693103       2.75906991      -0.03381405       0.00000000
Si       2.70871751       0.00869886      -2.65783106       0.00000000
Si      -0.04373865      -2.69493617      -2.70083530       0.00000000
Si      -0.11709252       2.71184519      -2.71953660       0.00000000
Si      -2.75846718      -2.68455944       0.07077902       0.00000000
Si      -2.76889278       0.01868463      -2.68505152       0.00000000
