10
Lattice="16.290000149 0.0 0.0 0.0 16.290000149 0.0 0.0 0.0 29.1751946751" Properties=species:S:1:pos:R:3:initial_magmoms:R:1 pbc="T T T"
Si       2.23186034      -0.50432211       0.32845434       0.00000000
Si      -1.05280642       0.66911339       2.07132212       0.00000000
Si      -0.05704758       2.06829245      -1.28773474       0.00000000
Si      -0.65101357      -1.77231944      -1.58584688       0.00000000
Si      -2.36571527       1.97782430      -0.92552470       0.00000000
H       -0.64863523      -2.92842075       1.53105587       0.00000000
Si       2.79332778      -1.54078966      -1.68095802       0.00000000
Si      -3.12609990       1.38450992       1.23122239       0.00000000
Si       3.47530863       1.28169070      -0.51567157       0.00000000
Si       1.17226099      -3.22815675      -1.75194127       0.00000000
