10
Lattice="16.290000149 0.0 0.0 0.0 16.290000149 0.0 0.0 0.0 29.1751946751" Properties=species:S:1:pos:R:3:initial_magmoms:R:1 pbc="T T T"
Si      -1.33496307      -1.37681452      -1.34555998       0.00000000
Si       1.34301766      -1.35798328       1.36370695       0.00000000
Si       1.33097935       1.35775522      -1.38337103       0.00000000
Si      -1.38827780       1.36104580       1.32338683       0.00000000
Si      -2.66477850       0.03240081      -2.65692663       0.00000000
Si      -0.03643910       2.71379999       2.68484729       0.00000000
Si       2.69108033       2.71210583      -0.02970035       0.00000000
Si       2.69098259       0.00386073       2.71443094       0.00000000
Si       2.70212495      -2.71339274       0.00942359       0.00000000
Si      -2.71996902      -2.70844058       0.02266913       0.00000000
