10
Lattice="16.290000149 0.0 0.0 0.0 16.290000149 0.0 0.0 0.0 29.1751946751" Properties=species:S:1:pos:R:3:initial_magmoms:R:1 pbc="T T T"
Si      -1.36010098      -1.35435061      -1.35367068       0.00000000
Si      -1.36879984       1.35358498       1.35186182       0.00000000
Si       1.34829073      -1.36073629       1.36560334       0.00000000
Si       1.35529543       1.34384356      -1.37596053       0.00000000
Si       2.69004917       2.69514794       0.01838037       0.00000000
Si       0.01902672      -2.71329500      -2.68948615       0.00000000
Si      -2.69108033      -2.71210583       0.02970035       0.00000000
Si       2.71331129      -0.00524538       2.71270960       0.00000000
Si      -0.02093265       2.69128721      -2.73543708       0.00000000
Si      -2.71971326       2.71274114      -0.00805235       0.00000000
