10
Lattice="16.290000149 0.0 0.0 0.0 16.290000149 0.0 0.0 0.0 29.1751946751" Properties=species:S:1:pos:R:3:initial_magmoms:R:1 pbc="T T T"
Si       1.30215745       1.23668794      -1.50018851       0.00000000
Si       1.44647056      -1.35224920       1.28359186       0.00000000
Si      -1.50519601       1.33410214       1.24846493       0.00000000
Si      -1.43553997      -1.40934565      -1.31688076       0.00000000
Si       2.50483187      -2.81711118      -0.19559051       0.00000000
Si      -2.81764060      -0.15394050       2.51916136       0.00000000
Si      -0.11732058       2.60908787      -2.75361322       0.00000000
Si       0.13147659      -2.70943427       2.66926774       0.00000000
Si       2.48546306      -0.21471849      -2.91232628       0.00000000
Si       3.15731154       2.16808499      -0.39336915       0.00000000
