10
Lattice="16.290000149 0.0 0.0 0.0 16.290000149 0.0 0.0 0.0 29.1751946751" Properties=species:S:1:pos:R:3:initial_magmoms:R:1 pbc="T T T"
Si      -1.36993037       1.23887080      -1.44501822       0.00000000
Si       1.19855305      -1.40208031      -1.47550630       0.00000000
Si      -1.36754225      -1.42772077       1.30010503       0.00000000
Si       1.43553997       1.40934565       1.31688076       0.00000000
Si      -0.06965604       2.74344780       2.56534569       0.00000000
Si       2.55332720      -2.76011247      -0.17163767       0.00000000
Si       0.06296085      -2.64130949       2.68435131       0.00000000
Si      -2.77438251       2.55730196      -0.13131755       0.00000000
Si       2.73769742       2.64603359      -0.18330775       0.00000000
Si      -0.03836295       2.63660168      -2.78719387       0.00000000
