10
Lattice="16.290000149 0.0 0.0 0.0 16.290000149 0.0 0.0 0.0 29.1751946751" Properties=species:S:1:pos:R:3:initial_magmoms:R:1 pbc="T T T"
Si       1.34685721       1.29062413      -1.37123415       0.00000000
Si      -1.52853958       1.26260533       1.21517603       0.00000000
Si       1.03174345      -0.82735282       1.95301671       0.00000000
Si      -1.41160996      -1.39393531      -1.30045513       0.00000000
Si      -0.79728148      -2.12159333       2.59163254       0.00000000
Si      -2.45052101      -0.46524240       2.50145202       0.00000000
Si       2.60167592       2.60962544       0.09884556       0.00000000
Si      -0.07840377       2.65571148      -2.66766310       0.00000000
Si       2.71171487      -0.07899021      -2.71556877       0.00000000
Si      -0.07299549      -2.72469800      -2.70859590       0.00000000
