10
Lattice="16.290000149 0.0 0.0 0.0 16.290000149 0.0 0.0 0.0 29.1751946751" Properties=species:S:1:pos:R:3:initial_magmoms:R:1 pbc="T T T"
Si       1.36718713       1.35021295      -1.35058978       0.00000000
Si      -1.34350147      -1.36945144      -1.36371862       0.00000000
Si       1.35164647      -1.31883841       1.40802407       0.00000000
Si      -1.36277254       1.37360539       1.34984873       0.00000000
Si       2.67167405       2.64523538       0.12539499       0.00000000
Si      -2.69904125      -2.68353317       0.03632312       0.00000000
Si       0.08355141      -2.74515825      -2.65735259       0.00000000
Si      -0.00415395       2.76219759      -2.65494855       0.00000000
Si       2.77058694      -2.64945449       0.10573091       0.00000000
Si      -2.71740008      -0.01790271      -2.72502445       0.00000000
