10
Lattice="16.290000149 0.0 0.0 0.0 16.290000149 0.0 0.0 0.0 29.1751946751" Properties=species:S:1:pos:R:3:initial_magmoms:R:1 pbc="T T T"
Si       1.38219022      -1.35650089      -1.32443714       0.00000000
Si       1.33722982       1.32460507       1.40528744       0.00000000
Si      -1.35265645      -1.39764943       1.32088360       0.00000000
Si      -1.33014367       1.39453804      -1.36920939       0.00000000
Si      -0.03127680      -2.65201202      -2.66816025       0.00000000
Si      -2.65790900       2.71013474       0.05094864       0.00000000
Si       2.70391196       0.04637763      -2.66768002       0.00000000
Si      -2.70467759      -0.02850750       2.67965994       0.00000000
Si      -2.75690334       0.03557736      -2.65077971       0.00000000
Si       2.68916951       2.71934387       0.09655239       0.00000000
