10
Lattice="16.290000149 0.0 0.0 0.0 16.290000149 0.0 0.0 0.0 29.1751946751" Properties=species:S:1:pos:R:3:initial_magmoms:R:1 pbc="T T T"
Si      -0.71908948      -0.08013051      -1.32475806       0.00000000
H       -2.11387187       0.75816919       0.30490996       0.00000000
H        1.14978079       1.63023805      -1.12546231       0.00000000
H        1.80063146       1.20744739      -1.08248725       0.00000000
Si      -1.51490485       0.84929545       1.70555271       0.00000000
Si       0.25964631      -2.68183901       1.44312183       0.00000000
Si       2.25202736      -2.08323038       0.27226292       0.00000000
Si       0.89103043      -0.86825701      -2.84770323       0.00000000
Si       0.38288016       2.34758450       2.02580882       0.00000000
Si      -1.03602772      -1.17970552       2.76452475       0.00000000
