10
Lattice="16.290000149 0.0 0.0 0.0 16.290000149 0.0 0.0 0.0 29.1751946751" Properties=species:S:1:pos:R:3:initial_magmoms:R:1 pbc="T T T"
Si      -1.36049194      -1.36231642       1.34404287       0.00000000
Si       1.35448093       1.35345466       1.36061438       0.00000000
Si       1.36930483      -1.37906254      -1.32259910       0.00000000
Si      -1.38375406       1.33807690      -1.35028636       0.00000000
Si      -0.02011815       2.69970914      -2.67997503       0.00000000
Si       2.71647155      -0.04088790       2.66559166       0.00000000
Si      -0.00408879      -2.70567128      -2.68645193       0.00000000
Si      -2.73549827       0.00192222       2.67661989       0.00000000
Si      -0.00982287      -2.73898434       2.68621852       0.00000000
Si       2.72951985       2.69599502       0.01838037       0.00000000
