10
Lattice="16.290000149 0.0 0.0 0.0 16.290000149 0.0 0.0 0.0 29.1751946751" Properties=species:S:1:pos:R:3:initial_magmoms:R:1 pbc="T T T"
Si       1.37849239       1.36392913       1.30509398       0.00000000
Si      -1.31711167       1.39147552      -1.34173803       0.00000000
Si       1.32737437      -1.35887923      -1.36644942       0.00000000
Si      -1.37062432      -1.35837424       1.33809113       0.00000000
Si      -2.62918973       0.03145599      -2.68721923       0.00000000
Si      -0.00680922       2.67838553       2.66352022       0.00000000
Si       2.73865854       0.04553055      -2.62439920       0.00000000
Si       2.70782156      -0.00273672       2.68114204       0.00000000
Si      -0.09241317      -2.78801724      -2.60217646       0.00000000
Si      -0.00790065      -2.72409527       2.67399412       0.00000000
