10
Lattice="16.290000149 0.0 0.0 0.0 16.290000149 0.0 0.0 0.0 29.1751946751" Properties=species:S:1:pos:R:3:initial_magmoms:R:1 pbc="T T T"
Si      -1.32478426      -1.33651730      -1.33777312       0.00000000
Si       1.31682806      -1.43525001       1.27615219       0.00000000
Si      -1.44274015       1.33157393       1.28300836       0.00000000
Si       1.29957418       1.28985524      -1.47308184       0.00000000
Si       2.63104517      -0.05139169       2.64000502       0.00000000
Si      -0.07397289       2.68049998       2.62089526       0.00000000
Si      -2.74207944       0.00628794      -2.59190971       0.00000000
Si       2.66148955       2.68522408      -0.15404503       0.00000000
Si      -0.14960736       2.67571072      -2.69956034       0.00000000
Si      -0.08146629      -2.77010149       2.61094652       0.00000000
