10
Lattice="16.290000149 0.0 0.0 0.0 16.290000149 0.0 0.0 0.0 29.1751946751" Properties=species:S:1:pos:R:3:initial_magmoms:R:1 pbc="T T T"
Si      -1.34607529       1.34498386      -1.36557416       0.00000000
Si      -1.35560494      -1.37057545       1.34643523       0.00000000
Si       1.35734797       1.34809525       1.36784983       0.00000000
Si       1.34371324      -1.30326517      -1.42401208       0.00000000
Si      -2.76895794      -0.11422548      -2.59010085       0.00000000
Si       0.11403000       2.78167945      -2.58086981       0.00000000
Si      -2.70003494       2.67401981       0.03591466       0.00000000
Si       2.69188994      -2.68802921      -0.06190976       0.00000000
Si       0.00715131      -2.71019990       2.71069651       0.00000000
Si      -2.71078634      -0.01769094       2.71247620       0.00000000
