10
Lattice="16.290000149 0.0 0.0 0.0 16.290000149 0.0 0.0 0.0 29.1751946751" Properties=species:S:1:pos:R:3:initial_magmoms:R:1 pbc="T T T"
Si       1.36689391      -1.35739684       1.32817156       0.00000000
Si       1.36855549       1.34379469      -1.34293421       0.00000000
Si      -1.34021089      -1.36280512      -1.36525323       0.00000000
Si      -1.31826826       1.36285399       1.39089823       0.00000000
Si      -0.01368360       2.68965821      -2.67907060       0.00000000
Si      -0.00908982      -2.68757309       2.68376781       0.00000000
Si       2.71555931       0.00438201       2.67638648       0.00000000
Si      -2.69893048      -2.71469594      -0.00256742       0.00000000
Si      -2.69112431      -0.00364896      -2.72516741       0.00000000
Si       2.71863812      -0.02124216      -2.69873468       0.00000000
