10
Lattice="16.290000149 0.0 0.0 0.0 16.290000149 0.0 0.0 0.0 29.1751946751" Properties=species:S:1:pos:R:3:initial_magmoms:R:1 pbc="T T T"
Si      -1.45731970      -1.29832930       1.30270162       0.00000000
Si       1.37010304      -1.38719125      -1.31104572       0.00000000
Si      -1.36300060       1.32625036      -1.38059939       0.00000000
Si       1.38320020       1.35027811       1.34036679       0.00000000
Si      -0.05545116       2.72095130       2.57272702       0.00000000
Si      -0.21655926      -2.68783373       2.67510277       0.00000000
Si       2.72455139       2.68304447      -0.03282209       0.00000000
Si       2.72389979      -0.03999195      -2.68563502       0.00000000
Si       0.00985545      -2.73313623      -2.67863297       0.00000000
Si      -0.00933417       2.67758732      -2.74276005       0.00000000
