10
Lattice="16.290000149 0.0 0.0 0.0 16.290000149 0.0 0.0 0.0 29.1751946751" Properties=species:S:1:pos:R:3:initial_magmoms:R:1 pbc="T T T"
Si       1.35635428      -1.39527109      -1.28907680       0.00000000
Si       1.39255066       1.34328970       1.32965950       0.00000000
Si      -1.32452525      -1.38364981       1.36201479       0.00000000
Si      -1.29408087       1.35296596      -1.43203526       0.00000000
Si      -2.64453736       2.67986792      -0.02532407       0.00000000
Si       2.70177797      -0.06504597      -2.63649816       0.00000000
Si       0.03344337       2.69869916       2.68394286       0.00000000
Si      -2.70441695      -0.03534930       2.70308179       0.00000000
Si      -2.63874235      -2.76750813      -0.00183804       0.00000000
Si      -2.65599623      -0.04240287      -2.75107206       0.00000000
