10
Lattice="16.290000149 0.0 0.0 0.0 16.290000149 0.0 0.0 0.0 29.1751946751" Properties=species:S:1:pos:R:3:initial_magmoms:R:1 pbc="T T T"
H        1.98448040      -0.08589717      -1.06010987       0.00000000
Si       1.02389167      -1.33450939       1.61846475       0.00000000
Si       0.76123171       1.87173731      -1.28006167       0.00000000
Si      -0.76976767      -2.04165830      -1.00922833       0.00000000
Si      -1.06991092       1.11014722       1.86782514       0.00000000
H       -1.22116357       1.24901947      -2.36397850       0.00000000
H       -3.02179503       0.04157208      -1.28149125       0.00000000
H       -1.87201424       1.67181014      -2.40695356       0.00000000
H        2.32147163      -0.78576445       2.53972987       0.00000000
Si      -1.02100834       3.41630625      -0.65002334       0.00000000
