10
Lattice="16.290000149 0.0 0.0 0.0 16.290000149 0.0 0.0 0.0 29.1751946751" Properties=species:S:1:pos:R:3:initial_magmoms:R:1 pbc="T T T"
Si       1.34588144      -1.36097087       1.35556707       0.00000000
Si      -1.31421710      -1.38385832      -1.36385283       0.00000000
Si      -1.37989170       1.34830051       1.34106700       0.00000000
Si       1.32452525       1.38364981      -1.36201479       0.00000000
Si      -2.63104517       0.05139169      -2.64000502       0.00000000
Si       2.68087953      -0.01162129      -2.65109159       0.00000000
Si      -0.00989129       2.71740986       2.66632104       0.00000000
Si       2.66375874      -2.73151374      -0.03343477       0.00000000
Si       2.70257781       0.00175769       2.70599931       0.00000000
Si      -0.02983514      -2.70914757       2.70629106       0.00000000
