10
Lattice="16.290000149 0.0 0.0 0.0 16.290000149 0.0 0.0 0.0 29.1751946751" Properties=species:S:1:pos:R:3:initial_magmoms:R:1 pbc="T T T"
Si      -1.37050703      -1.37218653      -1.33018465       0.00000000
Si       1.34736546       1.35374951      -1.37628146       0.00000000
Si       1.40594430      -1.33817301       1.33310217       0.00000000
Si      -1.39631039       1.33739435       1.34815657       0.00000000
Si      -0.01729998       2.69905917       2.68227987       0.00000000
Si       0.06896697      -2.68864661       2.70311096       0.00000000
Si      -2.70260551      -0.00589535      -2.70238158       0.00000000
Si      -2.70040636       2.71789041      -0.02692870       0.00000000
Si      -0.00085360      -2.71203905      -2.71063816       0.00000000
Si       2.70282379       2.72171856      -0.03854043       0.00000000
