10
Lattice="16.290000149 0.0 0.0 0.0 16.290000149 0.0 0.0 0.0 29.1751946751" Properties=species:S:1:pos:R:3:initial_magmoms:R:1 pbc="T T T"
Si      -1.41507973      -1.32638068       1.23886629       0.00000000
Si       1.36228384      -1.36967950      -1.26214810       0.00000000
Si       1.23028597       1.13756329       1.62552515       0.00000000
Si      -1.39514077       1.45046161      -1.19367391       0.00000000
Si      -0.37098846       1.06381846       3.41650282       0.00000000
Si       2.70010010       0.07767072      -2.51828610       0.00000000
Si      -2.49794120       0.09374895       2.73686666       0.00000000
Si      -0.05765031      -2.67965615      -2.57619887       0.00000000
Si       2.52780077       2.72772794       0.34948966       0.00000000
Si      -0.12010617      -2.62029539       2.66544579       0.00000000
