10
Lattice="16.28999089631971 0.0 0.0 0.0 16.28999089631971 0.0 0.0 0.0 34.395419527814205" Properties=species:S:1:pos:R:3:initial_magmoms:R:1 pbc="T T T"
Si      -0.71113343       0.57274011       2.17052416       0.00000000
Si      -1.43106673       1.49152869      -1.16528307       0.00000000
Si       2.34647676       0.35513829      -0.25139626       0.00000000
Si      -0.78737552      -2.28525894      -0.11164759       0.00000000
Si      -3.38337503       0.15970716      -1.35394205       0.00000000
Si      -2.79643004      -2.06454573      -1.30568525       0.00000000
Si      -0.47948963      -3.15806085       2.04694135       0.00000000
Si      -1.37496234      -1.41410232       3.26237297       0.00000000
Si      -0.40706266       2.33321085      -3.05637869       0.00000000
Si      -2.88648116       1.43273808       2.15869213       0.00000000
