10
Lattice="16.28999089631971 0.0 0.0 0.0 16.28999089631971 0.0 0.0 0.0 34.395419527814205" Properties=species:S:1:pos:R:3:initial_magmoms:R:1 pbc="T T T"
Si       1.29522083       1.32991560       1.60248349       0.00000000
Si       1.32412418      -1.33493618      -1.58421951       0.00000000
Si      -0.81100679      -1.93893191       1.28752446       0.00000000
Si      -1.39083305       1.36270737      -1.56093380       0.00000000
Si       2.68397103      -2.66088109      -0.17249313       0.00000000
Si       2.65877040       2.71889874      -0.03855729       0.00000000
Si       0.98599591      -3.50318798       1.18275595       0.00000000
Si      -2.69330000      -2.77028459      -0.09754546       0.00000000
Si      -2.69748653       2.83630077      -0.04746571       0.00000000
Si      -0.18017654       2.63665053       2.97740676       0.00000000
