10
Lattice="16.28999089631971 0.0 0.0 0.0 16.28999089631971 0.0 0.0 0.0 34.395419527814205" Properties=species:S:1:pos:R:3:initial_magmoms:R:1 pbc="T T T"
Si       2.25067527      -0.56347110      -0.05606457       0.00000000
Si      -1.03309551       1.83954825      -1.02701341       0.00000000
Si      -0.73572156      -2.21054485      -0.48514766       0.00000000
Si      -0.20702961       0.38136519       2.35402383       0.00000000
Si      -2.12069736      -1.02832254       2.62313374       0.00000000
Si       2.37271995      -2.21624798       1.62625074       0.00000000
Si       0.82129293       3.14383968      -1.78175252       0.00000000
Si       1.66231305      -0.72094653       3.25260467       0.00000000
Si      -2.69781948      -2.46488714       0.72804825       0.00000000
Si       0.66072240      -3.59043722       0.92833289       0.00000000
