10
Lattice="16.28999089631971 0.0 0.0 0.0 16.28999089631971 0.0 0.0 0.0 34.395419527814205" Properties=species:S:1:pos:R:3:initial_magmoms:R:1 pbc="T T T"
Si       1.77500727       0.93663428       1.42766665       0.00000000
Si      -0.99758331      -1.67533269       1.50779770       0.00000000
Si       0.48412251      -1.51253043      -1.93584408       0.00000000
Si      -1.78368984       1.97021360       0.06112069       0.00000000
Si      -2.30146749      -0.33917802       2.97946846       0.00000000
Si       0.42384951       2.37357029       2.95828087       0.00000000
Si      -2.97248517      -2.47087113       0.28538749       0.00000000
Si       3.17164671       2.30099834       0.06136146       0.00000000
Si      -3.54243806       1.09355422       1.56900783       0.00000000
Si      -0.20201229      -0.40482672      -4.00699982       0.00000000
