10
Lattice="16.28999089631971 0.0 0.0 0.0 16.28999089631971 0.0 0.0 0.0 34.395419527814205" Properties=species:S:1:pos:R:3:initial_magmoms:R:1 pbc="T T T"
Si       1.35716877       1.35625653      -1.35686566       0.00000000
Si       1.35749457      -1.35759231       1.35710643       0.00000000
Si      -1.35744570       1.35757602       1.35751918       0.00000000
Si      -1.35837423      -1.35790182      -1.35731280       0.00000000
Si      -2.71193965       0.00138465      -2.71493517       0.00000000
Si       0.00039096      -2.71438641       2.71373133       0.00000000
Si       2.71489140       0.00048870       2.71376572       0.00000000
Si      -2.71413229      -0.00050499       2.71472879       0.00000000
Si      -2.71452325      -2.71480506      -0.00003440       0.00000000
Si       2.71515204      -2.71466334      -0.00003440       0.00000000
