10
Lattice="16.28999089631971 0.0 0.0 0.0 16.28999089631971 0.0 0.0 0.0 34.395419527814205" Properties=species:S:1:pos:R:3:initial_magmoms:R:1 pbc="T T T"
Si       0.70563393      -1.85365539      -1.29010412       0.00000000
Si      -0.45546840      -1.27317753       2.00546045       0.00000000
Si       1.85158656       1.62857646       0.08688288       0.00000000
Si      -1.93644117       1.10871369      -1.14880765       0.00000000
Si       1.91907603      -0.18694404      -2.64222321       0.00000000
Si       0.08263917      -3.40219908       0.82600646       0.00000000
Si      -0.54692046       1.23145884       3.45299249       0.00000000
Si       0.92479959       3.39325587      -1.23655042       0.00000000
Si      -0.88464474       2.54661570      -2.63843971       0.00000000
Si       3.32514738      -1.15904979       1.61455629       0.00000000
