10
Lattice="16.28999089631971 0.0 0.0 0.0 16.28999089631971 0.0 0.0 0.0 34.395419527814205" Properties=species:S:1:pos:R:3:initial_magmoms:R:1 pbc="T T T"
Si       1.74837312       1.57025826       0.48710820       0.00000000
Si      -2.11234059       0.76909977      -0.89400624       0.00000000
Si      -0.60137793      -0.71992026       2.25554969       0.00000000
Si       1.25558433      -1.11373101      -1.78660227       0.00000000
Si       1.66184064      -0.72436743       3.17579965       0.00000000
Si       2.08165023      -2.57191407       1.59443496       0.00000000
Si       0.94825719       3.57316263      -0.38354354       0.00000000
Si       2.28867984      -2.95327926      -0.75958887       0.00000000
Si      -1.66565250       1.85883561      -2.95907399       0.00000000
Si       2.49121341       1.49007888       2.69034243       0.00000000
