10
Lattice="16.28999089631971 0.0 0.0 0.0 16.28999089631971 0.0 0.0 0.0 34.395419527814205" Properties=species:S:1:pos:R:3:initial_magmoms:R:1 pbc="T T T"
Si       1.34635221       1.35628911      -1.38981649       0.00000000
Si      -1.36839258      -1.35780408      -1.39167385       0.00000000
Si      -1.28327733       1.42783479       1.46923556       0.00000000
Si       1.48429593      -1.38741930       1.58569852       0.00000000
Si       2.70971118       2.71751409       0.00560646       0.00000000
Si       2.71169856      -2.71969695      -0.01613146       0.00000000
Si      -2.72795598      -2.70430290      -0.02944250       0.00000000
Si      -2.72357397       2.71490769      -0.00770458       0.00000000
Si      -2.78941815       0.05634711       2.65821709       0.00000000
Si       2.70306486       0.00307881      -2.75332048       0.00000000
