10
Lattice="16.28999089631971 0.0 0.0 0.0 16.28999089631971 0.0 0.0 0.0 34.395419527814205" Properties=species:S:1:pos:R:3:initial_magmoms:R:1 pbc="T T T"
Si       2.11975254       0.81428823       0.39843676       0.00000000
Si       0.00980658      -1.94087205       1.31823959       0.00000000
Si       0.49777353      -0.61410042      -2.22758620       0.00000000
Si      -1.57315788       1.46583936       1.02384903       0.00000000
Si       1.88129952      -2.91918429       0.28080436       0.00000000
Si      -1.59949881      -0.04284270      -3.14381189       0.00000000
Si       1.81091043       1.79756892       2.49401326       0.00000000
Si       3.35010366      -1.16357841       0.69072920       0.00000000
Si      -0.51126165       1.93766292       3.12599506       0.00000000
Si       1.54598616      -2.71886616      -2.03524690       0.00000000
