10
Lattice="16.28999089631971 0.0 0.0 0.0 16.28999089631971 0.0 0.0 0.0 34.395419527814205" Properties=species:S:1:pos:R:3:initial_magmoms:R:1 pbc="T T T"
Si       2.25921123       0.56340594      -0.44851652       0.00000000
Si      -0.90973134      -1.18988676      -1.94578437       0.00000000
Si      -0.08215047      -1.76353911       1.75334189       0.00000000
Si      -1.11325860       2.18440755       0.98529174       0.00000000
Si       2.79731880      -1.56561561      -1.62797051       0.00000000
Si      -1.95587514      -2.98220215       0.93909866       0.00000000
Si       3.35847672       0.89968041       1.59656748       0.00000000
Si      -0.07524351      -0.56689200       3.79285382       0.00000000
Si       0.49011723       2.85309576       2.56933927       0.00000000
Si       2.16775917       3.06804231       0.99901552       0.00000000
