10
Lattice="16.28999089631971 0.0 0.0 0.0 16.28999089631971 0.0 0.0 0.0 34.395419527814205" Properties=species:S:1:pos:R:3:initial_magmoms:R:1 pbc="T T T"
Si      -1.36104579      -1.34565174       1.39563620       0.00000000
Si       1.35348723       1.36818081       1.39371006       0.00000000
Si      -1.40841711       1.39035150      -1.43429324       0.00000000
Si       1.34012943      -1.48128228      -1.57788731       0.00000000
Si       2.69671176      -2.71274112       0.01599732       0.00000000
Si      -2.71423980      -2.70430290       0.00911479       0.00000000
Si       2.71969695       2.71865628       0.00624277       0.00000000
Si      -2.71230129       2.72650617       0.03737752       0.00000000
Si      -0.00472410      -2.70363501       2.75693888       0.00000000
Si       2.70915732       0.01101204       2.75841788       0.00000000
