10
Lattice="16.28999089631971 0.0 0.0 0.0 16.28999089631971 0.0 0.0 0.0 34.395419527814205" Properties=species:S:1:pos:R:3:initial_magmoms:R:1 pbc="T T T"
Si      -1.35760860       1.35717746       1.35731280       0.00000000
Si       1.35718506      -1.35765747       1.35751918       0.00000000
Si       1.35664749       1.35884498      -1.35738159       0.00000000
Si      -1.35881406      -1.35829278      -1.35717522       0.00000000
Si      -2.71399056       0.00071676       2.71455682       0.00000000
Si      -0.00112401       2.71290795      -2.71569187       0.00000000
Si       0.00026064       2.71486601       2.71393770       0.00000000
Si      -2.71465357       2.71444735       0.00017198       0.00000000
Si       2.71502172       2.71458908       0.00017198       0.00000000
Si       2.71432125      -0.00032580       2.71565747       0.00000000
