10
Lattice="16.28999089631971 0.0 0.0 0.0 16.28999089631971 0.0 0.0 0.0 34.395419527814205" Properties=species:S:1:pos:R:3:initial_magmoms:R:1 pbc="T T T"
Si       0.60913197      -1.77386697       1.36298805       0.00000000
Si       1.63918125       1.66175919      -0.04612428       0.00000000
Si       0.30884211      -0.98328069      -2.09557650       0.00000000
Si      -2.32217208       0.14009400       0.63198179       0.00000000
Si       0.77382387       2.96868960       1.63171961       0.00000000
Si      -1.81091043      -1.79756892      -2.49401326       0.00000000
Si      -1.22732118      -3.20442219       1.07943205       0.00000000
Si       1.39202937       2.49958647      -2.26277273       0.00000000
Si       0.94297923      -0.79990416       3.47332020       0.00000000
Si      -3.38406831      -0.33172956      -1.47016424       0.00000000
