10
Lattice="16.28999089631971 0.0 0.0 0.0 16.28999089631971 0.0 0.0 0.0 34.395419527814205" Properties=species:S:1:pos:R:3:initial_magmoms:R:1 pbc="T T T"
Si      -0.33726816      -1.19847159       2.00938153       0.00000000
Si      -0.00690696      -1.19664711      -2.03951194       0.00000000
Si       1.74801474       1.57315788      -0.37508226       0.00000000
Si      -2.16134743       1.01032209       0.16296559       0.00000000
Si      -2.07351337      -2.47982344       1.02470891       0.00000000
Si       0.56536074       3.41998776      -1.22351455       0.00000000
Si      -1.94613372       2.13457644       2.29365983       0.00000000
Si      -3.62361995      -0.85211361       0.33102170       0.00000000
Si       1.63413135      -2.98369595      -1.65201292       0.00000000
Si       0.07524351       0.56689200      -3.79285382       0.00000000
