10
Lattice="16.28999089631971 0.0 0.0 0.0 16.28999089631971 0.0 0.0 0.0 34.395419527814205" Properties=species:S:1:pos:R:3:initial_magmoms:R:1 pbc="T T T"
Si       1.36296801       1.35822762       1.33478379       0.00000000
Si      -1.36598166      -1.36379228       1.33481819       0.00000000
Si       1.35638685      -1.35738706      -1.35817269       0.00000000
Si      -1.35835794       1.35754344      -1.35899818       0.00000000
Si      -0.00957852      -2.55020113       2.77203160       0.00000000
Si      -2.69296506      -0.01674612       2.69488263       0.00000000
Si       2.71062342       2.71531494      -0.00110065       0.00000000
Si      -2.71407690       2.71285515       0.00189175       0.00000000
Si       2.71376739       0.00045612      -2.71551989       0.00000000
Si      -0.00043983       2.71495656      -2.71541670       0.00000000
