10
Lattice="16.28999089631971 0.0 0.0 0.0 16.28999089631971 0.0 0.0 0.0 34.395419527814205" Properties=species:S:1:pos:R:3:initial_magmoms:R:1 pbc="T T T"
Si      -1.71199755      -1.37418923      -0.69791785       0.00000000
Si      -0.71040690       1.49530145       1.62635393       0.00000000
Si       2.33430813      -0.26362433      -0.01227917       0.00000000
Si      -0.12204468       1.65277688      -1.68231530       0.00000000
Si       1.29753108       2.73127262       1.53806083       0.00000000
Si       2.89932678       1.05714932       1.83554698       0.00000000
Si       2.80971549      -0.11474024      -2.28815656       0.00000000
Si       1.41835401       3.24336506      -0.79088872       0.00000000
Si      -2.37271995       2.21624798      -1.62625074       0.00000000
Si      -0.84664017      -2.68111964      -2.37576175       0.00000000
