10
Lattice="16.28999089631971 0.0 0.0 0.0 16.28999089631971 0.0 0.0 0.0 34.395419527814205" Properties=species:S:1:pos:R:3:initial_magmoms:R:1 pbc="T T T"
Si      -2.28847198       0.55825830       0.09895568       0.00000000
Si       0.13116708      -2.37513576       0.21878939       0.00000000
Si       1.12454757       0.85271634      -1.96927645       0.00000000
Si       0.90632673       1.02154590       2.07297870       0.00000000
Si      -0.37563111       3.18629142       1.09521956       0.00000000
Si       3.25361799       0.76031946       1.67062086       0.00000000
Si       2.46194028      -2.83855598       0.17097973       0.00000000
Si      -3.42323666      -0.61985079      -1.55976436       0.00000000
Si       3.72695652      -0.88050708      -0.01905507       0.00000000
Si       3.13414713      -0.34994178      -2.26115614       0.00000000
