10
Lattice="16.28999089631971 0.0 0.0 0.0 16.28999089631971 0.0 0.0 0.0 34.395419527814205" Properties=species:S:1:pos:R:3:initial_magmoms:R:1 pbc="T T T"
Si       1.35682668      -1.35770634       1.36367596       0.00000000
Si      -1.35899325       1.35593073       1.36357277       0.00000000
Si       1.34759025       1.36624230      -1.38147216       0.00000000
Si      -1.36616085      -1.35361755      -1.37735159       0.00000000
Si       2.71073745       2.71627605       0.00546887       0.00000000
Si      -2.71800279      -2.71118054       0.00257966       0.00000000
Si      -2.71583622       2.71443528       0.00158219       0.00000000
Si       2.71415835      -0.00022806       2.72150470       0.00000000
Si       2.71652040      -2.71943794       0.00619118       0.00000000
Si      -0.00122175       2.71480995       2.72133272       0.00000000
