10
Lattice="16.28999089631971 0.0 0.0 0.0 16.28999089631971 0.0 0.0 0.0 34.395419527814205" Properties=species:S:1:pos:R:3:initial_magmoms:R:1 pbc="T T T"
Si      -1.30491045       1.31049792       1.54720658       0.00000000
Si       1.39582494      -1.40569668       1.54719626       0.00000000
Si       1.64390535       1.23074208      -1.52624398       0.00000000
Si      -2.03600565      -0.80848899      -1.34491122       0.00000000
Si      -2.74931217       2.60768691       0.10778499       0.00000000
Si      -2.69992089      -2.75693589       0.02056503       0.00000000
Si       2.80593621       2.65316859       0.01086896       0.00000000
Si       2.77122222      -2.79845910       0.18578008       0.00000000
Si       0.04639392       2.65670352       2.93396532       0.00000000
Si      -2.66760153      -0.05750370       2.93025061       0.00000000
