10
Lattice="16.28999089631971 0.0 0.0 0.0 16.28999089631971 0.0 0.0 0.0 34.395419527814205" Properties=species:S:1:pos:R:3:initial_magmoms:R:1 pbc="T T T"
Si      -1.34850249      -1.34503272       1.38513527       0.00000000
Si       1.36560699       1.36974465       1.37932245       0.00000000
Si      -1.44239805       1.30844538      -1.42688790       0.00000000
Si       1.33328763      -1.32968754      -1.53036314       0.00000000
Si       1.99720287       0.61875936      -2.89583939       0.00000000
Si       0.22735953       2.43147798      -2.84218251       0.00000000
Si      -2.68897401      -2.70585045       0.00059848       0.00000000
Si       2.71528236      -2.69830818       0.00038867       0.00000000
Si      -2.70557352       2.72929176       0.01021201       0.00000000
Si       0.00674406      -2.70269019       2.74313599       0.00000000
