10
Lattice="16.28999089631971 0.0 0.0 0.0 16.28999089631971 0.0 0.0 0.0 34.395419527814205" Properties=species:S:1:pos:R:3:initial_magmoms:R:1 pbc="T T T"
Si      -1.22144049       1.36184400       1.40433137       0.00000000
Si       1.34765541       1.35708732      -1.33588445       0.00000000
Si       1.35309627      -1.16810703       1.50087937       0.00000000
Si      -1.36296801      -1.35822762      -1.33478379       0.00000000
Si      -0.57834387      -1.93732083       2.70083304       0.00000000
Si       0.49057335       2.35134747       2.79772499       0.00000000
Si      -2.43488259      -0.30486735       2.75645046       0.00000000
Si       2.28328785       0.60908310       2.94517823       0.00000000
Si       2.70949941       0.00055386      -2.69295648       0.00000000
Si      -0.00658116      -2.71561468      -2.69295648       0.00000000
