10
Lattice="16.28999089631971 0.0 0.0 0.0 16.28999089631971 0.0 0.0 0.0 34.395419527814205" Properties=species:S:1:pos:R:3:initial_magmoms:R:1 pbc="T T T"
Si      -1.77950331       0.82601703       1.33571247       0.00000000
Si       0.99474885       1.79043390      -1.27060190       0.00000000
Si      -1.71201384      -0.98950347      -1.39339362       0.00000000
Si       1.79271450      -1.74226437       0.14745325       0.00000000
Si      -0.30594249      -1.96160922       2.86338588       0.00000000
Si       2.23599798       0.37437678      -2.74709490       0.00000000
Si      -0.49057335      -2.35134747      -2.79772499       0.00000000
Si      -2.70629028       2.59069644       0.01227917       0.00000000
Si       0.86252292      -3.51945450      -1.29684562       0.00000000
Si      -0.99533529       1.38306987       3.52037316       0.00000000
