10
Lattice="16.28999089631971 0.0 0.0 0.0 16.28999089631971 0.0 0.0 0.0 34.395419527814205" Properties=species:S:1:pos:R:3:initial_magmoms:R:1 pbc="T T T"
Si       1.96511157      -0.99893538       0.77761208       0.00000000
Si      -0.73715508      -1.22846148      -1.87847249       0.00000000
Si      -2.09875473       0.15123636       1.14997710       0.00000000
Si       0.63578241       2.31288678      -0.38784297       0.00000000
Si      -1.60116039       0.64180971      -3.01331560       0.00000000
Si      -0.13235625       2.39741559      -2.60339076       0.00000000
Si       3.53020590      -0.09474264      -0.77076739       0.00000000
Si      -1.35591444       0.07105698       3.35321132       0.00000000
Si      -2.89887066       2.15414073       0.27932536       0.00000000
Si      -1.06241751       3.58469595       0.56288136       0.00000000
