10
Lattice="16.28999089631971 0.0 0.0 0.0 16.28999089631971 0.0 0.0 0.0 34.395419527814205" Properties=species:S:1:pos:R:3:initial_magmoms:R:1 pbc="T T T"
Si      -0.83715939      -1.82755881       1.24591947       0.00000000
Si       0.82785780      -1.01809242      -2.01608000       0.00000000
Si       1.85619663       0.82738539       1.32420005       0.00000000
Si      -1.75604571       1.94145849      -0.13939607       0.00000000
Si      -0.04821840       0.60515721      -3.40121871       0.00000000
Si      -2.12633370      -0.43034922       2.68946852       0.00000000
Si       0.60048198       2.29692258       2.69856956       0.00000000
Si      -2.30062041       0.53225946      -2.76012213       0.00000000
Si      -3.48291603       0.80110962       1.09558389       0.00000000
Si       2.90193318       2.45894292      -0.01485019       0.00000000
