10
Lattice="16.28999089631971 0.0 0.0 0.0 16.28999089631971 0.0 0.0 0.0 34.395419527814205" Properties=species:S:1:pos:R:3:initial_magmoms:R:1 pbc="T T T"
Si       1.04573655       1.63155753      -1.33905024       0.00000000
Si      -1.25571465       1.46953719       1.37436950       0.00000000
Si       1.47219246      -1.26918648       1.36673028       0.00000000
Si      -1.85619663      -0.82738539      -1.32420005       0.00000000
Si       2.20465602      -0.14199993      -2.64112397       0.00000000
Si      -2.69335602      -2.65494420      -0.07828058       0.00000000
Si       0.10235007      -2.60592759       2.74789976       0.00000000
Si      -2.61118926       0.11288970       2.74635196       0.00000000
Si      -2.50758486       2.85037533      -0.16543174       0.00000000
Si       2.74064589       2.70288567       0.00058816       0.00000000
