10
Lattice="16.28999089631971 0.0 0.0 0.0 16.28999089631971 0.0 0.0 0.0 34.395419527814205" Properties=species:S:1:pos:R:3:initial_magmoms:R:1 pbc="T T T"
Si       0.01018125       0.34546203       2.35123780       0.00000000
Si      -1.91855475      -1.44415737      -0.48411580       0.00000000
Si       2.42323524      -0.40154850      -0.09008165       0.00000000
Si      -0.78195258       2.04467193      -1.27448859       0.00000000
Si       0.85134798      -1.69240068       3.14333036       0.00000000
Si       2.52529209      -2.23866954       1.48584856       0.00000000
Si      -3.68535186      -0.58723821       0.83371104       0.00000000
Si       0.65179548       3.76919649      -0.54375749       0.00000000
Si      -1.76202414      -3.44978217       0.77434451       0.00000000
Si       1.37764530       2.09593656       3.11388786       0.00000000
