10
Lattice="16.28999089631971 0.0 0.0 0.0 16.28999089631971 0.0 0.0 0.0 34.395419527814205" Properties=species:S:1:pos:R:3:initial_magmoms:R:1 pbc="T T T"
Si      -1.46880414      -1.75560588      -0.40992484       0.00000000
Si       1.89141561      -0.62258751      -1.20844935       0.00000000
Si       0.76813866      -0.08452881       2.21554779       0.00000000
Si      -1.23035112       1.97786664      -0.29229244       0.00000000
Si       3.25887966       1.12788702      -0.44579928       0.00000000
Si      -3.34029708      -0.77729364       0.62751038       0.00000000
Si       2.58721038       1.44759456       1.84827330       0.00000000
Si      -0.93006126       1.18728036       3.16627211       0.00000000
Si       0.13235625      -2.39741559       2.60339076       0.00000000
Si      -3.35010366       1.16357841      -0.69072920       0.00000000
