10
Lattice="16.28999089631971 0.0 0.0 0.0 16.28999089631971 0.0 0.0 0.0 34.395419527814205" Properties=species:S:1:pos:R:3:initial_magmoms:R:1 pbc="T T T"
Si       1.83770748      -0.25314660       1.41850229       0.00000000
Si      -1.81907172      -1.53212337       0.36727449       0.00000000
Si      -0.49533003       2.23374996       0.75050847       0.00000000
Si       0.67166928      -0.31970754      -2.29407258       0.00000000
Si      -2.58721038      -1.44759456      -1.84827330       0.00000000
Si       1.20423825       3.42236610      -0.39248635       0.00000000
Si       0.99689913       0.39302883       3.53839637       0.00000000
Si       2.44460772      -2.47322925       1.33753543       0.00000000
Si      -0.69579477      -2.07018207      -3.05672264       0.00000000
Si      -3.51727164      -0.26031420       1.31799882       0.00000000
