10
Lattice="16.28999089631971 0.0 0.0 0.0 16.28999089631971 0.0 0.0 0.0 34.395419527814205" Properties=species:S:1:pos:R:3:initial_magmoms:R:1 pbc="T T T"
Si      -1.23299010       1.16898669       1.57245627       0.00000000
Si       1.34757396       1.36607940      -1.34730373       0.00000000
Si      -1.36746405      -1.35045729      -1.34424254       0.00000000
Si       1.36291914      -1.27588167       1.42146030       0.00000000
Si       0.43127775       2.16803610       2.83731414       0.00000000
Si      -0.17770761      -2.30889573       2.82138905       0.00000000
Si      -1.95800913      -0.72034380       3.07285410       0.00000000
Si       2.70407484       0.00778662      -2.70527005       0.00000000
Si      -0.00842193      -2.70624141      -2.70561400       0.00000000
Si       2.70677898      -2.70954828       0.03446423       0.00000000
