10
Lattice="16.28999089631971 0.0 0.0 0.0 16.28999089631971 0.0 0.0 0.0 34.395419527814205" Properties=species:S:1:pos:R:3:initial_magmoms:R:1 pbc="T T T"
Si       1.35941679      -1.35524655      -1.36377915       0.00000000
Si      -1.35725022       1.35998761      -1.36353838       0.00000000
Si      -1.34882829      -1.35523026       1.39535416       0.00000000
Si       1.35835794       1.36447713       1.39329043       0.00000000
Si       2.71536381      -2.71217097      -0.00629437       0.00000000
Si      -2.71218726      -2.71645524      -0.00006879       0.00000000
Si      -2.71363707       2.71737467      -0.00536569       0.00000000
Si       2.71505430       2.71628324       0.00065351       0.00000000
Si       0.00133578      -2.71332756      -2.72067921       0.00000000
Si      -2.71490769       0.00251032      -2.72091997       0.00000000
