10
Lattice="16.28999089631971 0.0 0.0 0.0 16.28999089631971 0.0 0.0 0.0 34.395419527814205" Properties=species:S:1:pos:R:3:initial_magmoms:R:1 pbc="T T T"
Si      -1.45875810       1.19244429      -1.37419752       0.00000000
Si      -1.35439621      -1.33392294       1.36713270       0.00000000
Si       1.35858600       1.38008880       1.36420909       0.00000000
Si       1.38140829      -1.39183389      -1.44724312       0.00000000
Si       0.33759396       1.98623970      -2.68965872       0.00000000
Si       2.24831322       0.31242591      -2.80339821       0.00000000
Si      -2.70769841      -2.69562033      -0.00128983       0.00000000
Si      -0.00083079      -2.69320941       2.72475506       0.00000000
Si       2.73318507      -2.69576694      -0.01668179       0.00000000
Si      -2.71388861       0.02261052       2.72365441       0.00000000
