10
Lattice="16.28999089631971 0.0 0.0 0.0 16.28999089631971 0.0 0.0 0.0 34.395419527814205" Properties=species:S:1:pos:R:3:initial_magmoms:R:1 pbc="T T T"
Si       1.23299010      -1.16898669      -1.57245627       0.00000000
Si       1.66426785       0.99904941       1.26485786       0.00000000
Si      -0.72501903      -1.88933049       1.50039783       0.00000000
Si      -1.48362804       1.55403342      -1.51811148       0.00000000
Si       0.14002884       1.52738298       3.15701974       0.00000000
Si       2.59590924      -2.44486836      -0.15099598       0.00000000
Si      -2.70904329      -2.55089997       0.06198058       0.00000000
Si       1.05528249      -3.47788242       1.24893278       0.00000000
Si      -0.13447395      -2.51944398      -2.91669881       0.00000000
Si       2.63722068       2.84811102      -0.05138679       0.00000000
