10
Lattice="16.28999089631971 0.0 0.0 0.0 16.28999089631971 0.0 0.0 0.0 34.395419527814205" Properties=species:S:1:pos:R:3:initial_magmoms:R:1 pbc="T T T"
Si       2.29025997      -0.40855320      -0.27485395       0.00000000
Si      -0.23659596       2.31102876       0.32503690       0.00000000
Si      -0.98093493      -0.86736105      -1.98905383       0.00000000
Si      -0.91373868      -1.34275212       2.18063642       0.00000000
Si       2.67307497      -1.70054568       1.66749087       0.00000000
Si      -2.57844636       2.59876718       0.07587634       0.00000000
Si      -3.31437969      -0.87638571      -1.47422290       0.00000000
Si      -0.22068063      -3.20137596      -2.01942500       0.00000000
Si       0.61175466       3.43670849      -1.53675381       0.00000000
Si      -3.84346260       0.64071828       0.26591114       0.00000000
