10
Lattice="16.28999089631971 0.0 0.0 0.0 16.28999089631971 0.0 0.0 0.0 34.395419527814205" Properties=species:S:1:pos:R:3:initial_magmoms:R:1 pbc="T T T"
Si       0.72531225       1.66697266       1.64472251       0.00000000
Si       0.18912690       1.80981641      -1.76269745       0.00000000
Si      -1.85894964      -0.91831617       1.45734647       0.00000000
Si       1.69437177      -2.13713397       0.28372797       0.00000000
Si      -0.12691539      -1.99409148      -2.57546166       0.00000000
Si       2.12819076       0.40468614       3.01329294       0.00000000
Si      -0.60707943      -2.29915431       2.99714772       0.00000000
Si       1.80309123       3.37584905       0.43577236       0.00000000
Si      -2.05330563       2.73488642      -1.85773204       0.00000000
Si       3.38928111      -1.06580583       1.62336638       0.00000000
