10
Lattice="16.28999089631971 0.0 0.0 0.0 16.28999089631971 0.0 0.0 0.0 34.395419527814205" Properties=species:S:1:pos:R:3:initial_magmoms:R:1 pbc="T T T"
Si      -0.47540736      -0.14888408       2.27587739       0.00000000
Si       0.03510495      -2.31932526      -0.38897802       0.00000000
Si       1.91850588       1.36403012       0.15464189       0.00000000
Si      -1.83334176       0.86988926      -1.24508049       0.00000000
Si       0.37017396       3.10673432      -0.09063198       0.00000000
Si       2.02082337      -2.55393384       0.81386487       0.00000000
Si      -2.93176017       1.76751713       0.60584126       0.00000000
Si       0.90416016      -2.01087411       2.78269418       0.00000000
Si      -1.90781964      -0.74422820      -2.95563445       0.00000000
Si      -2.80971549       0.11474024       2.28815656       0.00000000
