10
Lattice="16.28999089631971 0.0 0.0 0.0 16.28999089631971 0.0 0.0 0.0 34.395419527814205" Properties=species:S:1:pos:R:3:initial_magmoms:R:1 pbc="T T T"
Si       0.47540736       0.14888408      -2.27587739       0.00000000
Si       0.56501865       1.32077365       1.84782616       0.00000000
Si      -2.33430813       0.26362433       0.01227917       0.00000000
Si       1.37956752      -1.86199002       0.50681679       0.00000000
Si      -0.56858616      -3.09564801       0.84795075       0.00000000
Si       0.51051231      -2.17044117      -2.66485541       0.00000000
Si      -1.03677705       2.99489695       1.55034001       0.00000000
Si       0.05258412      -0.31159675       3.51958206       0.00000000
Si      -2.45635281       1.91640121      -1.67003613       0.00000000
Si       2.39391324       1.51291420      -2.12123550       0.00000000
