10
Lattice="16.28999089631971 0.0 0.0 0.0 16.28999089631971 0.0 0.0 0.0 34.395419527814205" Properties=species:S:1:pos:R:3:initial_magmoms:R:1 pbc="T T T"
Si      -0.00395847      -0.34425657       2.29663439       0.00000000
Si       2.34683514      -0.43805439       0.14016141       0.00000000
Si       0.20632914       2.01886857      -1.34871394       0.00000000
Si      -1.61792280      -1.91028920       0.09816458       0.00000000
Si      -0.89798625      -2.64746546      -2.03789535       0.00000000
Si       3.08907598       0.02388114      -2.18820342       0.00000000
Si       2.52920169      -2.81738156       0.17496960       0.00000000
Si      -0.38555172      -1.01509506      -3.70965126       0.00000000
Si       1.66876389       0.74010357       3.48335476       0.00000000
Si       3.16573330       1.59868431       1.80056682       0.00000000
