10
Lattice="16.28999089631971 0.0 0.0 0.0 16.28999089631971 0.0 0.0 0.0 34.395419527814205" Properties=species:S:1:pos:R:3:initial_magmoms:R:1 pbc="T T T"
Si       1.36507335       1.35226548       1.38175076       0.00000000
Si      -1.35386190      -1.36083402       1.38460558       0.00000000
Si       1.26303116      -1.55005866      -1.35552080       0.00000000
Si      -1.30689783       1.34799750      -1.53866275       0.00000000
Si      -2.69659773       2.68827354       0.00326413       0.00000000
Si      -2.71700910      -2.71086777      -0.00233545       0.00000000
Si       2.72771882       2.70816363      -0.00508021       0.00000000
Si       0.00443551       2.70840798       2.74288146       0.00000000
Si      -2.70791928      -0.00511506       2.74353497       0.00000000
Si       0.00790065      -2.71989243       2.74233113       0.00000000
