10
Lattice="16.28999089631971 0.0 0.0 0.0 16.28999089631971 0.0 0.0 0.0 34.395419527814205" Properties=species:S:1:pos:R:3:initial_magmoms:R:1 pbc="T T T"
Si       1.33905429       1.10247462      -1.61885572       0.00000000
Si      -0.71822610       1.94354361       1.32095683       0.00000000
Si      -1.32608745      -1.44845793      -1.50063860       0.00000000
Si       1.19122254      -1.64810817       1.52423387       0.00000000
Si       1.20185991       0.57733389       2.32492529       0.00000000
Si       2.78203456       2.52938088      -0.32335152       0.00000000
Si       1.01164158       3.58178004       1.04317926       0.00000000
Si      -3.16130256      -2.30920524      -0.13820087       0.00000000
Si      -0.01935252       2.50830162      -3.03732361       0.00000000
Si       2.66661991      -2.95484310       0.14931060       0.00000000
