10
Lattice="16.28999089631971 0.0 0.0 0.0 16.28999089631971 0.0 0.0 0.0 34.395419527814205" Properties=species:S:1:pos:R:3:initial_magmoms:R:1 pbc="T T T"
Si       1.88524170      -0.21618459       1.36966077       0.00000000
Si      -1.67394411       0.54626886       1.65748180       0.00000000
Si      -0.10205685       1.83712104      -1.57593021       0.00000000
Si       0.13023855      -2.13521175      -1.14932359       0.00000000
Si      -2.52529209       2.23866954      -1.48584856       0.00000000
Si       0.92067822      -0.88036047       3.47947698       0.00000000
Si      -2.51511084       2.58413157       0.86538924       0.00000000
Si      -3.21730758      -1.26312660       1.44629380       0.00000000
Si       3.41316292      -1.67580117       0.28658280       0.00000000
Si       2.64689694       1.91169666       2.06231611       0.00000000
