10
Lattice="16.28999089631971 0.0 0.0 0.0 16.28999089631971 0.0 0.0 0.0 34.395419527814205" Properties=species:S:1:pos:R:3:initial_magmoms:R:1 pbc="T T T"
Si      -1.59822819      -0.20217519      -1.64420516       0.00000000
Si       1.95542621      -0.98183088      -0.82469943       0.00000000
Si       0.22820661       2.26947393      -0.68333418       0.00000000
Si      -0.33247890       0.47452770       2.34748869       0.00000000
Si       2.25179018       2.48573997       0.48115779       0.00000000
Si      -1.89361476       2.85926967       0.13596517       0.00000000
Si       1.66181036       1.70095293       2.66733188       0.00000000
Si       3.53744585       0.83756664      -0.67759014       0.00000000
Si      -2.79891522      -2.10906630      -1.29571057       0.00000000
Si      -3.26287071       1.39274613      -1.21722018       0.00000000
