10
Lattice="16.28999089631971 0.0 0.0 0.0 16.28999089631971 0.0 0.0 0.0 34.395419527814205" Properties=species:S:1:pos:R:3:initial_magmoms:R:1 pbc="T T T"
Si       1.35529173       1.36194174      -1.37664304       0.00000000
Si      -1.36239786      -1.35591444      -1.38080489       0.00000000
Si      -1.34385984       1.43366661       1.38699607       0.00000000
Si       1.35840681      -1.40582700       1.41846789       0.00000000
Si      -2.69866656      -2.70086571       0.00457459       0.00000000
Si      -2.70677898       2.70954828      -0.03446423       0.00000000
Si       2.68893233       2.74553289      -0.01018105       0.00000000
Si       2.71567725      -2.72295495      -0.00147900       0.00000000
Si      -0.00131949      -2.71109583      -2.73911516       0.00000000
Si       2.71366218       0.00285075      -2.73870242       0.00000000
