10
Lattice="16.28999089631971 0.0 0.0 0.0 16.28999089631971 0.0 0.0 0.0 34.395419527814205" Properties=species:S:1:pos:R:3:initial_magmoms:R:1 pbc="T T T"
Si       1.72986768       1.63823643      -0.27777756       0.00000000
Si       0.71822610      -1.94354361      -1.32095683       0.00000000
Si      -0.88933626      -0.08480574       2.30779636       0.00000000
Si       1.92008601      -1.36620972       1.00396846       0.00000000
Si      -2.18561301       0.96541056      -1.57135562       0.00000000
Si       0.45652725       1.84937112       2.94538461       0.00000000
Si      -0.64498626       1.99842462      -2.97128437       0.00000000
Si       2.05728039      -0.84106899      -2.93981255       0.00000000
Si       0.47610783       3.49888023      -1.34561835       0.00000000
Si       3.50026066       0.58583727      -1.64430834       0.00000000
