10
Lattice="16.28999089631971 0.0 0.0 0.0 16.28999089631971 0.0 0.0 0.0 34.395419527814205" Properties=species:S:1:pos:R:3:initial_magmoms:R:1 pbc="T T T"
Si       1.96928833       0.63250812      -1.08882201       0.00000000
Si       0.84595599      -1.10846934       1.88170566       0.00000000
Si      -1.52792122       1.45961658       1.08307797       0.00000000
Si      -1.05554380      -1.11135267      -1.85449887       0.00000000
Si      -3.28292437      -0.45941058      -1.43590638       0.00000000
Si      -0.61631653      -2.97090504       2.04976178       0.00000000
Si      -3.41316292       1.67580117      -0.28658280       0.00000000
Si       3.57266416       1.30119633       0.49522553       0.00000000
Si       1.51144159       2.50934418      -2.52730805       0.00000000
Si      -0.70579750       2.23151823      -3.16634090       0.00000000
