10
Lattice="16.28999089631971 0.0 0.0 0.0 16.28999089631971 0.0 0.0 0.0 34.395419527814205" Properties=species:S:1:pos:R:3:initial_magmoms:R:1 pbc="T T T"
Si       0.10205685      -1.83712104       1.57593021       0.00000000
Si       1.34586351       1.93417686       0.63758825       0.00000000
Si      -2.42323524       0.40154850       0.09008165       0.00000000
Si       0.88933626       0.08480574      -2.30779636       0.00000000
Si       2.80942227      -1.28140398      -1.30382790       0.00000000
Si      -2.41305399       0.74701053       2.44131945       0.00000000
Si      -1.57188726      -1.29085218       3.23341201       0.00000000
Si       1.35957969       1.98848772       2.99986698       0.00000000
Si       0.54105606       3.80324259      -0.58933145       0.00000000
Si       0.23229540      -3.97233279       0.42660663       0.00000000
