10
Lattice="16.28999089631971 0.0 0.0 0.0 16.28999089631971 0.0 0.0 0.0 34.395419527814205" Properties=species:S:1:pos:R:3:initial_magmoms:R:1 pbc="T T T"
Si      -0.76165524      -2.12788125      -0.69265535       0.00000000
Si       0.10021608      -0.32040801       2.37803184       0.00000000
Si       2.19713723       0.62328798      -0.78411282       0.00000000
Si      -1.38937410       1.91391210      -0.63837934       0.00000000
Si       0.07936488       3.40697205       0.49323059       0.00000000
Si       2.32460648       2.59252092       0.48910314       0.00000000
Si      -1.72621872      -2.79205713       1.41716087       0.00000000
Si      -2.02160529       0.26938773       3.19733120       0.00000000
Si      -1.40309028       1.85960124      -3.00065808       0.00000000
Si      -2.64689694      -1.91169666      -2.06231611       0.00000000
