10
Lattice="16.28999089631971 0.0 0.0 0.0 16.28999089631971 0.0 0.0 0.0 34.395419527814205" Properties=species:S:1:pos:R:3:initial_magmoms:R:1 pbc="T T T"
Si      -0.60690024       2.22008265       0.08096686       0.00000000
Si       2.12182137      -0.58979574      -0.81929935       0.00000000
Si      -0.15258843      -0.69602283       2.27632453       0.00000000
Si      -1.36925595      -1.46652354      -1.35318535       0.00000000
Si       1.89361476      -2.85926967      -0.13596517       0.00000000
Si       0.29538657      -3.06144486      -1.78017033       0.00000000
Si       1.56113586      -2.38474197       2.21152353       0.00000000
Si      -2.36061648      -1.54634454       2.35061868       0.00000000
Si       1.33229394       3.43673388      -0.47892209       0.00000000
Si      -2.44460772       2.47322925      -1.33753543       0.00000000
