10
Lattice="16.28999089631971 0.0 0.0 0.0 16.28999089631971 0.0 0.0 0.0 34.395419527814205" Properties=species:S:1:pos:R:3:initial_magmoms:R:1 pbc="T T T"
Si       1.34848220       1.34384355      -1.35548297       0.00000000
Si       1.35326380      -1.36052451       1.35851664       0.00000000
Si      -1.35997065       1.35604476       1.35917016       0.00000000
Si      -1.34776944      -1.38065895      -1.38110069       0.00000000
Si      -0.07931601       2.59141320      -2.74724280       0.00000000
Si       2.71274016      -0.00125433       2.71607022       0.00000000
Si      -2.71733490       2.71208952       0.00175417       0.00000000
Si       2.71204947       2.71740006      -0.00141021       0.00000000
Si      -0.00167787       2.71321353       2.71634538       0.00000000
Si       2.71390164      -2.71666701      -0.00261405       0.00000000
