10
Lattice="16.28999089631971 0.0 0.0 0.0 16.28999089631971 0.0 0.0 0.0 34.395419527814205" Properties=species:S:1:pos:R:3:initial_magmoms:R:1 pbc="T T T"
Si       1.35594702      -1.35692442       1.35748478       0.00000000
Si       1.35679410       1.35683701      -1.35731280       0.00000000
Si      -1.35808101      -1.35808101      -1.35690006       0.00000000
Si      -1.35941679       1.35524655       1.36377915       0.00000000
Si       2.71244790      -2.71521720      -0.00048154       0.00000000
Si       0.00837306      -2.72300382       2.70478851       0.00000000
Si       2.71384884      -0.00035838      -2.71438484       0.00000000
Si      -0.00125433      -2.71474479      -2.71441924       0.00000000
Si      -2.71489140      -2.71441899       0.00020637       0.00000000
Si      -0.00133578       2.71465424      -2.71476319       0.00000000
