10
Lattice="16.28999089631971 0.0 0.0 0.0 16.28999089631971 0.0 0.0 0.0 34.395419527814205" Properties=species:S:1:pos:R:3:initial_magmoms:R:1 pbc="T T T"
Si      -1.35671265      -1.35156501      -1.37289394       0.00000000
Si       1.35731425       1.36231363      -1.36966077       0.00000000
Si      -1.30005603       1.29945330       1.49547928       0.00000000
Si       1.32497973      -1.25921700       1.56530202       0.00000000
Si       0.58223718       2.13080598       2.88054920       0.00000000
Si      -2.27300886      -0.54960831       2.81172393       0.00000000
Si       2.37923988       0.56654991       2.77578070       0.00000000
Si       2.69142470      -2.68165980      -0.00130703       0.00000000
Si      -2.70428661      -2.71764441      -0.02559021       0.00000000
Si      -2.71371852       2.72508309       0.02669086       0.00000000
