10
Lattice="16.28999089631971 0.0 0.0 0.0 16.28999089631971 0.0 0.0 0.0 34.395419527814205" Properties=species:S:1:pos:R:3:initial_magmoms:R:1 pbc="T T T"
Si      -1.66426785      -0.99904941      -1.26485786       0.00000000
Si       0.97295283       1.84906161      -1.31624465       0.00000000
Si      -1.52423901       0.52833357       1.89216188       0.00000000
Si       2.05273548      -1.94346216       0.20981218       0.00000000
Si      -0.36448875       2.50744544       2.43320213       0.00000000
Si      -0.43127775      -2.16803610      -2.83731414       0.00000000
Si       2.27300886       0.54960831      -2.81172393       0.00000000
Si      -2.38928688      -2.88837990       0.23553996       0.00000000
Si      -1.08414837      -1.35640314       3.40955105       0.00000000
Si       0.93164139      -3.44391777      -1.41585384       0.00000000
