10
Lattice="16.28999089631971 0.0 0.0 0.0 16.28999089631971 0.0 0.0 0.0 34.395419527814205" Properties=species:S:1:pos:R:3:initial_magmoms:R:1 pbc="T T T"
Si       1.54525311       1.23385347      -1.45623409       0.00000000
Si      -1.12109409      -1.50045561      -1.62566602       0.00000000
Si       1.25375985      -1.86064380       1.06784079       0.00000000
Si      -2.05273548       1.94346216      -0.20981218       0.00000000
Si      -0.82438803       0.21955662       3.06408327       0.00000000
Si      -2.66172084      -2.53346967      -0.22573726       0.00000000
Si      -0.47610783      -3.49888023       1.34561835       0.00000000
Si       0.22027338       2.49307047      -3.02153611       0.00000000
Si      -2.48401323      -0.22457394      -3.04712631       0.00000000
Si       2.59951326       3.05962038      -0.24575541       0.00000000
