10
Lattice="16.28999089631971 0.0 0.0 0.0 16.28999089631971 0.0 0.0 0.0 34.395419527814205" Properties=species:S:1:pos:R:3:initial_magmoms:R:1 pbc="T T T"
Si       0.77801040      -1.16955684      -1.86423278       0.00000000
Si      -2.35010943       0.36551502       0.18583856       0.00000000
Si       0.65506977       2.25359118      -0.53206304       0.00000000
Si       0.63009720      -1.55108493       1.74295446       0.00000000
Si      -0.52882227       0.22247253       3.04502819       0.00000000
Si       3.13792871      -0.23501583      -1.50273672       0.00000000
Si      -2.73292443       1.65750750      -1.75650627       0.00000000
Si      -0.27451908      -3.66803559       0.89754897       0.00000000
Si      -1.06354152      -1.45593504      -3.39101191       0.00000000
Si      -1.31413059       3.43224666      -1.13745716       0.00000000
