10
Lattice="16.28999089631971 0.0 0.0 0.0 16.28999089631971 0.0 0.0 0.0 34.395419527814205" Properties=species:S:1:pos:R:3:initial_magmoms:R:1 pbc="T T T"
Si       0.44668809       1.08973584      -2.06506775       0.00000000
Si      -1.28565567       1.64817333       1.15874794       0.00000000
Si      -1.58201964      -1.81939752      -0.14710929       0.00000000
Si       2.11234059      -0.76909977       0.89400624       0.00000000
Si      -3.30923924       1.43190729      -0.00574404       0.00000000
Si      -3.53744585      -0.83756664       0.67759014       0.00000000
Si       2.48681511       2.27004408      -1.74474303       0.00000000
Si       1.51096266      -1.48902003       3.14955593       0.00000000
Si       0.92947482      -0.53398620      -3.66428367       0.00000000
Si      -0.70397235       3.76158906       0.36115211       0.00000000
