10
Lattice="16.28999089631971 0.0 0.0 0.0 16.28999089631971 0.0 0.0 0.0 34.395419527814205" Properties=species:S:1:pos:R:3:initial_magmoms:R:1 pbc="T T T"
Si       1.92896895      -0.90754848       1.00623856       0.00000000
Si      -1.99428926      -1.22642523      -0.31984318       0.00000000
Si      -0.79327250       1.66112388       1.51756115       0.00000000
Si       0.58997982       0.78478704      -2.18617409       0.00000000
Si       0.09380922       3.50153550       0.34233780       0.00000000
Si       0.64618032      -2.07785466       2.76900480       0.00000000
Si       2.94261420       1.20373326       1.52640078       0.00000000
Si      -1.66181036      -1.70095293      -2.66733188       0.00000000
Si      -1.96374551      -2.47547727       1.71402790       0.00000000
Si      -1.43360375       0.56852100      -3.35066606       0.00000000
