10
Lattice="16.28999089631971 0.0 0.0 0.0 16.28999089631971 0.0 0.0 0.0 34.395419527814205" Properties=species:S:1:pos:R:3:initial_magmoms:R:1 pbc="T T T"
Si       1.35614902       1.35690324      -1.35727841       0.00000000
Si      -1.35803481      -1.35745716      -1.35576501       0.00000000
Si       1.35704497      -1.35726989       1.35714083       0.00000000
Si      -1.35740712       1.35739194       1.35731280       0.00000000
Si       0.00066300      -2.71373059       2.71438484       0.00000000
Si      -2.71288840      -0.00393241      -2.71538231       0.00000000
Si       2.71491421       0.00041865       2.71376572       0.00000000
Si      -0.00158828      -2.71104274      -2.71775559       0.00000000
Si      -2.71435450       0.00039585       2.71469440       0.00000000
Si       0.00039096       2.71430007       2.71476319       0.00000000
