10
Lattice="16.28999089631971 0.0 0.0 0.0 16.28999089631971 0.0 0.0 0.0 34.395419527814205" Properties=species:S:1:pos:R:3:initial_magmoms:R:1 pbc="T T T"
Si      -1.77272245      -1.10099223       1.16085294       0.00000000
Si       1.14410860       1.81036701       1.13645281       0.00000000
Si       1.71406149      -1.75405833      -0.14716752       0.00000000
Si      -0.82575217       0.86753765      -2.14840587       0.00000000
Si       1.17669512      -0.11176569      -2.53390995       0.00000000
Si      -0.34492425      -2.34856188       2.55261277       0.00000000
Si       2.38507917       0.37763478       2.54691345       0.00000000
Si       1.43944467      -2.37552183      -2.63176497       0.00000000
Si       1.02522581      -3.61302426       1.11712258       0.00000000
Si       3.68896335      -0.95851989       1.07524269       0.00000000
