10
Lattice="16.28999089631971 0.0 0.0 0.0 16.28999089631971 0.0 0.0 0.0 34.395419527814205" Properties=species:S:1:pos:R:3:initial_magmoms:R:1 pbc="T T T"
Si      -1.35585580       1.35765747      -1.35772555       0.00000000
Si       1.35866745      -1.35622395      -1.35872302       0.00000000
Si      -1.35538339      -1.34207120       1.38108005       0.00000000
Si       1.34706897       1.36839258       1.37963544       0.00000000
Si      -2.71136366       2.71459818       0.00385229       0.00000000
Si       2.71357191      -2.71307411      -0.00058472       0.00000000
Si      -2.71365388       0.00074934      -2.71517593       0.00000000
Si       0.00079821      -2.71391250      -2.71534791       0.00000000
Si      -2.71543728      -2.71455927       0.00261405       0.00000000
Si       0.00083079       2.71573848      -2.71493517       0.00000000
