10
Lattice="16.290000149 0.0 0.0 0.0 16.290000149 0.0 0.0 0.0 29.1751946751" Properties=species:S:1:pos:R:3:initial_magmoms:R:1 pbc="T T T"
Si      -1.34576252      -1.32952465       1.38164386       0.00000000
Si       1.36145305       1.36580248       1.36507235       0.00000000
Si      -1.38336962       1.34188876      -1.37266082       0.00000000
Si       1.38673513      -1.37055916      -1.34920104       0.00000000
Si       2.68607441       0.11468160      -2.62303118       0.00000000
Si      -2.67522527      -2.69084738       0.00368191       0.00000000
Si      -2.60270252      -0.14895576      -2.76922779       0.00000000
Si      -2.70242957       0.05693355       2.71165346       0.00000000
Si      -0.03846069       2.80437240      -2.60800274       0.00000000
Si       0.02127474      -2.67996566       2.74575926       0.00000000
