10
Lattice="16.290000149 0.0 0.0 0.0 16.290000149 0.0 0.0 0.0 29.1751946751" Properties=species:S:1:pos:R:3:initial_magmoms:R:1 pbc="T T T"
Si       1.36677988       1.34972425       1.33747845       0.00000000
Si       1.44432028      -1.32958818      -1.28335846       0.00000000
Si      -1.35190711      -1.38738510       1.33391908       0.00000000
Si      -1.37518552       1.34210053      -1.35737593       0.00000000
Si       0.12237048      -2.66850483      -2.62010753       0.00000000
Si       0.03611493       2.74734111      -2.61426082       0.00000000
Si      -0.00109143       2.69553890       2.68674368       0.00000000
Si       2.69009804      -0.03547962       2.69680912       0.00000000
Si      -2.79366987      -0.08909001      -2.59001040       0.00000000
Si      -2.71682993      -0.02596626       2.67860380       0.00000000
