10
Lattice="16.290000149 0.0 0.0 0.0 16.290000149 0.0 0.0 0.0 29.1751946751" Properties=species:S:1:pos:R:3:initial_magmoms:R:1 pbc="T T T"
Si       1.34332228       1.35510973      -1.36691622       0.00000000
Si      -1.35568639      -1.36312115      -1.34981956       0.00000000
Si       1.38807091      -1.34951900       1.33353980       0.00000000
Si      -1.38513871       1.35436039       1.33362732       0.00000000
Si       0.02505402      -2.70103515       2.68271750       0.00000000
Si      -0.02972925       2.72280185       2.67037639       0.00000000
Si      -2.70028907      -0.00050010      -2.70451137       0.00000000
Si       2.70563870      -0.00092201      -2.70503652       0.00000000
Si       2.71464707       2.70410093      -0.02558665       0.00000000
Si       2.71003700      -2.71655952      -0.04968536       0.00000000
