10
Lattice="16.290000149 0.0 0.0 0.0 16.290000149 0.0 0.0 0.0 29.1751946751" Properties=species:S:1:pos:R:3:initial_magmoms:R:1 pbc="T T T"
Si      -1.34151409       1.35930277      -1.36790818       0.00000000
Si       1.32914021      -1.34778574      -1.39375740       0.00000000
Si       1.34904985       1.37298637       1.35361233       0.00000000
Si      -1.34700382      -1.36780615       1.36286087       0.00000000
Si       2.66675447      -2.70554096      -0.02891262       0.00000000
Si      -2.68877855       2.72117936      -0.01826367       0.00000000
Si      -2.71182890      -2.70922250      -0.00741050       0.00000000
Si      -2.73103481      -0.02829573       2.70194395       0.00000000
Si      -2.71207325       0.01133784      -2.72187061       0.00000000
Si       2.71696025       0.03461625       2.71828206       0.00000000
