10
Lattice="16.290000149 0.0 0.0 0.0 16.290000149 0.0 0.0 0.0 29.1751946751" Properties=species:S:1:pos:R:3:initial_magmoms:R:1 pbc="T T T"
Si      -1.51936831       1.31658062       1.20175544       0.00000000
Si       1.40390479       1.27939055      -1.39588719       0.00000000
Si      -1.22582251      -1.43638054      -1.42485816       0.00000000
Si       0.98199379      -0.86597804       1.98443839       0.00000000
Si      -0.08188983       2.64983568       2.41112561       0.00000000
Si      -0.76207879      -1.18592341       3.47928784       0.00000000
Si       1.10469007      -3.17041847       1.74934467       0.00000000
Si      -2.56987784      -2.81168009      -0.10765647       0.00000000
Si      -2.68095935      -0.12017785       2.71055064       0.00000000
Si      -2.62257599      -0.09383366      -2.78710635       0.00000000
