10
Lattice="16.290000149 0.0 0.0 0.0 16.290000149 0.0 0.0 0.0 29.1751946751" Properties=species:S:1:pos:R:3:initial_magmoms:R:1 pbc="T T T"
Si       0.43386786      -0.24423597       2.28183953       0.00000000
Si      -1.71543476       1.63644454       0.09487773       0.00000000
Si      -0.03717378      -2.29975706      -0.64766015       0.00000000
Si       1.86957074       0.89712289      -1.28187053       0.00000000
H       -0.75937465       0.24063588      -2.40809139       0.00000000
Si       2.16784064      -2.67385691       0.14470897       0.00000000
Si      -0.32573484       3.38077776      -0.82221534       0.00000000
Si       2.06869970      -1.97853455       2.36902581       0.00000000
Si      -0.59176684      -0.57518362      -3.67353629       0.00000000
Si       3.46226034       1.71629813       0.27570559       0.00000000
