10
Lattice="16.290000149 0.0 0.0 0.0 16.290000149 0.0 0.0 0.0 29.1751946751" Properties=species:S:1:pos:R:3:initial_magmoms:R:1 pbc="T T T"
Si       1.39048183       1.37912770       1.30401450       0.00000000
Si      -1.34197021       1.33946155      -1.39997172       0.00000000
Si      -1.40390479      -1.27939055       1.39588719       0.00000000
Si       1.33568227      -1.39248550      -1.35612140       0.00000000
Si      -2.62972730      -2.71577108      -0.02897097       0.00000000
Si       0.01301571       2.72911259       2.63778770       0.00000000
Si       2.59599071      -2.79073767       0.06826996       0.00000000
Si      -2.70852203       2.72267804      -0.07979416       0.00000000
Si       2.72564282       0.04911435       2.70973373       0.00000000
Si       2.70617627      -0.03308499      -2.72989379       0.00000000
