10
Lattice="16.290000149 0.0 0.0 0.0 16.290000149 0.0 0.0 0.0 29.1751946751" Properties=species:S:1:pos:R:3:initial_magmoms:R:1 pbc="T T T"
Si       1.35355240      -1.36619344       1.33882051       0.00000000
Si      -1.35540946      -1.36844146      -1.33674907       0.00000000
Si       1.37438731       1.33695289      -1.36146046       0.00000000
Si      -1.37857384       1.34659657       1.35518779       0.00000000
Si       2.63795375       0.07200180       2.65943570       0.00000000
Si      -2.68260139      -0.00612504      -2.71017136       0.00000000
Si       0.02972925      -2.72280185      -2.67037639       0.00000000
Si      -2.70819298       2.70629030      -0.00863586       0.00000000
Si       0.03282435       2.72130968      -2.70404457       0.00000000
Si      -2.70332715      -2.72400894       0.03708167       0.00000000
