10
Lattice="16.290000149 0.0 0.0 0.0 16.290000149 0.0 0.0 0.0 29.1751946751" Properties=species:S:1:pos:R:3:initial_magmoms:R:1 pbc="T T T"
Si      -2.19372545       0.72513307       0.46694899       0.00000000
Si      -0.26534781      -2.02965257       1.19688319       0.00000000
Si       1.57512898       1.30939021       1.20788223       0.00000000
Si      -0.28862622       0.88624117      -2.24094670       0.00000000
H        2.24407784      -0.95768911      -1.63208957       0.00000000
H        0.80793514      -1.86598694      -2.17772406       0.00000000
H        1.62119710      -2.61601112      -0.52515350       0.00000000
H        1.04839183      -2.48433905       1.80366889       0.00000000
Si      -2.15539508       2.87073623      -0.51100353       0.00000000
Si      -2.41640975      -0.08338851      -2.91854060       0.00000000
