10
Lattice="16.290000149 0.0 0.0 0.0 16.290000149 0.0 0.0 0.0 29.1751946751" Properties=species:S:1:pos:R:3:initial_magmoms:R:1 pbc="T T T"
Si      -1.49379301       1.79556527      -0.11486274       0.00000000
Si       1.11366586      -1.11384505      -1.75999362       0.00000000
Si      -1.65418436      -1.52622640       0.73801572       0.00000000
Si       1.86826754       0.83070856       1.25322049       0.00000000
H       -0.74714086       0.55252423       2.50364016       0.00000000
H       -1.39745395       0.97580359       2.45646387       0.00000000
Si       2.44944587      -2.53855217      -0.40013779       0.00000000
H        1.37095012       3.20440593      -0.96453194       0.00000000
H        0.79814485       3.33607800       1.36429045       0.00000000
Si       2.55803501       2.69563664      -0.16504408       0.00000000
