10
Lattice="16.290000149 0.0 0.0 0.0 16.290000149 0.0 0.0 0.0 29.1751946751" Properties=species:S:1:pos:R:3:initial_magmoms:R:1 pbc="T T T"
Si       1.37272573      -1.34477209      -1.33750762       0.00000000
Si       1.37687968       1.33635016       1.34424709       0.00000000
Si      -1.35317773      -1.36432009       1.35384573       0.00000000
Si      -1.34423452       1.36054081      -1.36822910       0.00000000
Si      -0.01228266      -2.69544116      -2.66147796       0.00000000
Si      -0.00247608       2.70003494       2.65786023       0.00000000
Si      -2.72316674      -0.00866628       2.68834831       0.00000000
Si       2.74506051       0.01335780      -2.67408164       0.00000000
Si      -2.69006546       0.00293220      -2.73030224       0.00000000
Si       2.73487925       2.69107544      -0.01266203       0.00000000
