10
Lattice="16.290000149 0.0 0.0 0.0 16.290000149 0.0 0.0 0.0 29.1751946751" Properties=species:S:1:pos:R:3:initial_magmoms:R:1 pbc="T T T"
Si       0.57524878       0.53178705      -2.18866475       0.00000000
Si      -2.28677393      -0.05892093       0.48585452       0.00000000
Si       0.73927279       2.06280272       0.87405966       0.00000000
Si       1.21937167      -1.85677820       0.95175320       0.00000000
Si       1.67345543       1.02755692       2.70987961       0.00000000
Si       3.01332423      -0.51525270       1.55579643       0.00000000
Si       1.25235892      -1.51684988      -2.96603782       0.00000000
Si      -0.26015130      -0.00449604       3.62093341       0.00000000
Si      -3.01975878       2.09417726      -0.19731184       0.00000000
Si      -2.46516572       0.36960381       2.82856430       0.00000000
