10
Lattice="16.290000149 0.0 0.0 0.0 16.290000149 0.0 0.0 0.0 29.1751946751" Properties=species:S:1:pos:R:3:initial_magmoms:R:1 pbc="T T T"
Si       1.44674749      -1.19423620      -1.35486978       0.00000000
Si      -1.34490893      -1.46248363       1.23534193       0.00000000
Si      -1.35268577       1.24445827      -1.46089244       0.00000000
Si       1.42643386       1.35405739       1.28473553       0.00000000
Si      -2.70632288      -0.00721647       2.52398985       0.00000000
Si       0.08935065      -2.53866620      -2.69835832       0.00000000
Si      -2.52523151       2.83137046      -0.17184481       0.00000000
Si       0.09474264       2.66926313       2.70200522       0.00000000
Si       2.75419920      -0.04163724       2.65359190       0.00000000
Si       2.72453510      -2.68969079      -0.01502843       0.00000000
