10
Lattice="16.290000149 0.0 0.0 0.0 16.290000149 0.0 0.0 0.0 29.1751946751" Properties=species:S:1:pos:R:3:initial_magmoms:R:1 pbc="T T T"
Si      -1.24274782       1.11179251      -1.60589024       0.00000000
Si      -1.89886016      -0.01839141       1.33348145       0.00000000
Si       1.56814057       1.69238441       0.43762792       0.00000000
Si       0.43368867      -2.29083014       0.28489578       0.00000000
H        1.77595211       0.55304551      -2.36736282       0.00000000
H       -2.07805016       1.36845775       1.94566456       0.00000000
Si      -1.06914529      -1.26555382       3.04425068       0.00000000
Si       2.04722948      -2.45824247      -1.39652904       0.00000000
Si       0.83381995       2.32093406       2.61486533       0.00000000
Si      -2.58261662       2.65460213      -0.45180706       0.00000000
