10
Lattice="16.290000149 0.0 0.0 0.0 16.290000149 0.0 0.0 0.0 29.1751946751" Properties=species:S:1:pos:R:3:initial_magmoms:R:1 pbc="T T T"
Si      -1.33169122       1.31520574       1.41726969       0.00000000
Si      -1.42643386      -1.35405739      -1.28473553       0.00000000
Si       1.32776533      -1.39569463       1.36885637       0.00000000
Si       1.33784884       1.36261779      -1.40642819       0.00000000
Si       0.02031363      -2.54829359      -2.63960532       0.00000000
Si       2.63220338       2.64891041       0.10030140       0.00000000
Si      -2.60864967       2.68979831       0.02954572       0.00000000
Si      -2.74362861      -0.07481997       2.67459804       0.00000000
Si       2.66338244      -0.07056828       2.77361865       0.00000000
Si       2.71137278      -2.74929591       0.04373653       0.00000000
