10
Lattice="16.290000149 0.0 0.0 0.0 16.290000149 0.0 0.0 0.0 29.1751946751" Properties=species:S:1:pos:R:3:initial_magmoms:R:1 pbc="T T T"
H       -0.89897995      -0.07069860       1.22381189       0.00000000
Si      -0.89875189       1.41936400      -1.58996058       0.00000000
Si       0.33467805      -2.12090915      -0.93074706       0.00000000
Si       1.89053597       1.33750675       0.38473329       0.00000000
H        0.99720865       0.35792388       2.46250313       0.00000000
H       -2.18246906      -1.82017946       0.79099788       0.00000000
Si       0.30986838       2.86655621       1.48466731       0.00000000
Si      -0.33909264       0.38551914      -3.60027737       0.00000000
Si      -1.73257184      -2.80611543      -1.83147285       0.00000000
Si       1.56871072      -3.43806969       0.58464173       0.00000000
