10
Lattice="16.290000149 0.0 0.0 0.0 16.290000149 0.0 0.0 0.0 29.1751946751" Properties=species:S:1:pos:R:3:initial_magmoms:R:1 pbc="T T T"
Si      -1.34877780      -1.35386191       1.35609222       0.00000000
Si      -1.36742985       1.35822763      -1.33960824       0.00000000
Si       1.33189485      -1.34817670      -1.39051895       0.00000000
Si       1.31351647       1.36495540       1.39515781       0.00000000
Si       0.03233858       2.69250896      -2.67355649       0.00000000
Si       2.68135194      -2.70822881      -0.03063395       0.00000000
Si      -2.69604227       0.00801468       2.70573673       0.00000000
Si       2.68949694       2.71383257       0.04536743       0.00000000
Si      -2.71933697      -2.70182684       0.00212979       0.00000000
Si       2.70062301       0.01448181       2.72624689       0.00000000
