10
Lattice="16.290000149 0.0 0.0 0.0 16.290000149 0.0 0.0 0.0 29.1751946751" Properties=species:S:1:pos:R:3:initial_magmoms:R:1 pbc="T T T"
Si      -1.34514676       1.35865117      -1.31165840       0.00000000
Si       1.39204567       1.34744365       1.29453256       0.00000000
Si       1.36515088      -1.34596126      -1.33488186       0.00000000
Si      -1.34180731      -1.31872438       1.39294049       0.00000000
H       -0.39716649      -2.22286826       2.15315854       0.00000000
Si       2.61959492      -0.18003708       2.54104276       0.00000000
Si      -2.65137671      -0.07136649      -2.63912976       0.00000000
Si      -2.54497043       2.75159280       0.17114169       0.00000000
Si       2.60866433      -2.73632907       0.03498106       0.00000000
Si       0.02901249       2.61109154      -2.74273088       0.00000000
