10
Lattice="16.290000149 0.0 0.0 0.0 16.290000149 0.0 0.0 0.0 29.1751946751" Properties=species:S:1:pos:R:3:initial_magmoms:R:1 pbc="T T T"
Si       1.34947990      -1.34666173      -1.36557416       0.00000000
Si      -1.35593074      -1.37337733       1.34220483       0.00000000
Si      -1.35397594       1.33121881      -1.38678453       0.00000000
Si       1.36482508       1.34141635       1.37027137       0.00000000
Si      -0.01920591       2.68092677       2.70935445       0.00000000
Si      -2.73007370      -0.01744659       2.66661279       0.00000000
Si       2.68441283      -2.72313416      -0.01295379       0.00000000
Si      -0.00848709      -2.71295291      -2.69540871       0.00000000
Si      -2.73409733       2.67592574      -0.06392285       0.00000000
Si       2.71182890       2.70922250       0.00741050       0.00000000
