10
Lattice="16.290000149 0.0 0.0 0.0 16.290000149 0.0 0.0 0.0 29.1751946751" Properties=species:S:1:pos:R:3:initial_magmoms:R:1 pbc="T T T"
Si      -1.28392894      -1.43832247       1.28327094       0.00000000
Si       1.30608334      -1.41268201      -1.33806195       0.00000000
Si      -1.43366662       1.62629897      -0.93086376       0.00000000
Si       1.19068498       1.16786904       1.68177492       0.00000000
Si      -0.80218477       2.04258992       2.66690455       0.00000000
Si      -2.31322889       0.18836274       2.59670903       0.00000000
Si       2.54738135       2.56175223       0.21607149       0.00000000
Si       0.25435206      -2.42275976       2.78713552       0.00000000
Si      -0.12282660       2.63745186      -2.60105613       0.00000000
Si       1.77769514      -0.56325624       3.21073017       0.00000000
