10
Lattice="16.290000149 0.0 0.0 0.0 16.290000149 0.0 0.0 0.0 29.1751946751" Properties=species:S:1:pos:R:3:initial_magmoms:R:1 pbc="T T T"
Si      -1.37272573       1.34477209       1.33750762       0.00000000
Si      -1.38500839      -1.35066907      -1.32397033       0.00000000
Si       1.36094806      -1.36744777       1.33479433       0.00000000
Si       1.37233477       1.35812989      -1.33657402       0.00000000
Si       0.00415395       2.68112225       2.68175472       0.00000000
Si      -0.05308911      -2.77003145      -2.60852498       0.00000000
Si      -0.00560376      -2.71477739       2.68330100       0.00000000
Si       2.70259247       0.00061902      -2.70118540       0.00000000
Si       2.71854038      -0.02275713       2.69815118       0.00000000
Si      -2.72590347      -0.01954800       2.69135336       0.00000000
