10
Lattice="16.290000149 0.0 0.0 0.0 16.290000149 0.0 0.0 0.0 29.1751946751" Properties=species:S:1:pos:R:3:initial_magmoms:R:1 pbc="T T T"
Si      -1.35883688      -1.35466012       1.35136584       0.00000000
Si      -1.38710654       1.35047359      -1.33108908       0.00000000
Si       1.31992984      -1.36042678      -1.39089823       0.00000000
Si       1.36961434       1.36143676       1.35165759       0.00000000
Si      -0.01112607       2.69935076      -2.68087946       0.00000000
Si       2.68477121      -2.71751411      -0.06080111       0.00000000
Si       0.00907353      -2.69303024       2.71603557       0.00000000
Si      -2.70291955       0.00469152       2.71871969       0.00000000
Si       2.68902290      -0.01635516      -2.73301554       0.00000000
Si      -2.70062301      -0.01448181      -2.72624689       0.00000000
