10
Lattice="16.290000149 0.0 0.0 0.0 16.290000149 0.0 0.0 0.0 29.1751946751" Properties=species:S:1:pos:R:3:initial_magmoms:R:1 pbc="T T T"
Si       1.31084002       1.01115289      -1.67019237       0.00000000
Si       1.43366662      -1.62629897       0.93086376       0.00000000
Si      -1.83671381      -1.18333005      -0.99960052       0.00000000
Si      -0.10542888       1.73535743       1.80550692       0.00000000
H       -2.24484347       1.48994857       0.49942098       0.00000000
Si       2.72080469       2.30891204      -0.30645624       0.00000000
Si       0.63148186       0.41629095       3.59776831       0.00000000
Si       2.62435160      -0.45842993       2.61263868       0.00000000
Si      -2.90059743       2.33248367      -0.57291330       0.00000000
Si       0.14973768      -3.06462144       2.21413470       0.00000000
