10
Lattice="16.290000149 0.0 0.0 0.0 16.290000149 0.0 0.0 0.0 29.1751946751" Properties=species:S:1:pos:R:3:initial_magmoms:R:1 pbc="T T T"
Si       1.43355259      -0.31744323      -0.44675976       0.00000000
Si      -2.00689544       0.08019567       1.05643380       0.00000000
Si      -1.24207993       1.94647583      -0.22622446       0.00000000
Si       0.63485389       2.65821851       1.04776877       0.00000000
Si       1.05435397      -0.08286723      -2.81307227       0.00000000
Si      -0.61372576       1.60954975      -2.55662231       0.00000000
Si       2.64122804       1.29205765       0.96960842       0.00000000
Si      -0.97614568      -1.24789546       2.67597803       0.00000000
Si       1.88385707      -2.44929926       0.45078593       0.00000000
H        1.60406002       2.40303566      -1.43582803       0.00000000
