10
Lattice="16.290000149 0.0 0.0 0.0 16.290000149 0.0 0.0 0.0 29.1751946751" Properties=species:S:1:pos:R:3:initial_magmoms:R:1 pbc="T T T"
Si      -0.84592342      -0.93180430      -0.81095371       0.00000000
H        1.43614270       0.90829783       0.54563449       0.00000000
H        0.81326197      -0.75002419       1.65257055       0.00000000
Si       2.08280684       1.73542259      -0.53081349       0.00000000
Si      -1.09656136       2.75222811      -0.06322265       0.00000000
Si      -0.80793514       1.86598694       2.17772406       0.00000000
Si       0.58409425      -2.37351818      -1.93428623       0.00000000
Si      -2.14008248       0.36290862      -2.23808753       0.00000000
Si      -2.67768506      -1.75642040       0.35331161       0.00000000
Si       2.00034686      -1.25879347       2.45205841       0.00000000
