10
Lattice="16.290000149 0.0 0.0 0.0 16.290000149 0.0 0.0 0.0 29.1751946751" Properties=species:S:1:pos:R:3:initial_magmoms:R:1 pbc="T T T"
Si      -1.44674749       1.19423620       1.35486978       0.00000000
Si      -1.35739684      -1.34443000      -1.34348854       0.00000000
Si       1.27778761      -1.49545459       1.33984135       0.00000000
Si       1.31064454       1.36604683      -1.48635947       0.00000000
Si       2.16002144      -0.50872041      -2.60356520       0.00000000
Si       0.36142623      -2.10518930      -2.72408793       0.00000000
Si      -0.02031363       2.54829359       2.63960532       0.00000000
Si      -2.79943327       2.43869447      -0.10602266       0.00000000
Si       2.69105915      -0.20100231       2.68334185       0.00000000
Si      -2.79165642      -0.26824743       2.59021171       0.00000000
