10
Lattice="16.290000149 0.0 0.0 0.0 16.290000149 0.0 0.0 0.0 29.1751946751" Properties=species:S:1:pos:R:3:initial_magmoms:R:1 pbc="T T T"
Si      -1.61354080       0.16741233       1.68142482       0.00000000
Si       0.81839332       1.93872016      -1.01868110       0.00000000
Si       1.76212190      -1.16043445       1.03224756       0.00000000
Si      -1.56455677      -0.78125212      -1.58972718       0.00000000
H       -0.27127737       3.01128798      -0.97083378       0.00000000
Si      -2.04722948       2.45824247       1.39652904       0.00000000
Si       1.09758763       1.20679579      -3.22995663       0.00000000
Si       0.60818716      -2.79919218       2.21393047       0.00000000
Si      -2.48401325      -2.61855236      -0.42248599       0.00000000
Si      -0.42575544      -0.65270773      -3.65355128       0.00000000
