10
Lattice="16.290000149 0.0 0.0 0.0 16.290000149 0.0 0.0 0.0 29.1751946751" Properties=species:S:1:pos:R:3:initial_magmoms:R:1 pbc="T T T"
Si       1.35883688       1.35466012      -1.35136584       0.00000000
Si      -1.34408267       1.35935164       1.36735385       0.00000000
Si       1.36791041      -1.33837012       1.36466973       0.00000000
Si      -1.34904985      -1.37298637      -1.35361233       0.00000000
Si       2.66663067      -2.69263928      -0.05683328       0.00000000
Si      -2.69110151      -0.04658940       2.68052936       0.00000000
Si      -0.02826967       2.70513371      -2.68245492       0.00000000
Si      -2.69056394      -0.01368360      -2.72152051       0.00000000
Si       2.67876672      -0.00576666      -2.74226407       0.00000000
Si       0.03745886       2.71660187       2.71898227       0.00000000
