10
Lattice="16.290000149 0.0 0.0 0.0 16.290000149 0.0 0.0 0.0 29.1751946751" Properties=species:S:1:pos:R:3:initial_magmoms:R:1 pbc="T T T"
Si       1.41465619       1.32639697      -1.23947897       0.00000000
Si      -1.42658047      -1.38984652      -1.17783178       0.00000000
Si       1.29415906      -1.29471292       1.42713382       0.00000000
Si      -1.08426241       1.41968980       1.49727099       0.00000000
H        2.14008248      -0.36290862       2.23808753       0.00000000
Si      -0.53760258      -2.11932902       2.59139914       0.00000000
Si       1.04352112       2.38931948       2.17486489       0.00000000
Si      -2.13912137      -0.34187823       2.68143379       0.00000000
Si       2.64655487       2.46220094       0.38520010       0.00000000
Si       0.00910611      -2.70879896      -2.46177375       0.00000000
