10
Lattice="16.290000149 0.0 0.0 0.0 16.290000149 0.0 0.0 0.0 29.1751946751" Properties=species:S:1:pos:R:3:initial_magmoms:R:1 pbc="T T T"
Si       1.36169740       1.36350559      -1.34086277       0.00000000
Si      -1.35640315       1.38284182       1.33584464       0.00000000
Si      -1.35630541      -1.36358704      -1.35644233       0.00000000
Si       1.38596950      -1.34553772       1.34445132       0.00000000
Si      -2.71018361       0.03073923       2.67495690       0.00000000
Si       0.04839759      -2.78964624       2.60446963       0.00000000
Si       0.00361638       2.71818363      -2.69292882       0.00000000
Si       2.69236235       2.71874564       0.04218733       0.00000000
Si       2.71458191       0.00467523      -2.70089365       0.00000000
Si      -2.72323190      -0.01384650      -2.69750932       0.00000000
