10
Lattice="16.290000149 0.0 0.0 0.0 16.290000149 0.0 0.0 0.0 29.1751946751" Properties=species:S:1:pos:R:3:initial_magmoms:R:1 pbc="T T T"
H       -1.12845718       0.07200180       1.00610659       0.00000000
Si       0.21615201      -2.13882815      -0.90673588       0.00000000
Si       2.06724989       0.68520628       0.90072579       0.00000000
Si      -0.23283297       1.51057171      -1.83789139       0.00000000
H       -0.44989722       0.98593597       2.62247072       0.00000000
H       -2.05886054       1.82421938       1.45079491       0.00000000
Si       2.34365861      -1.55835028      -1.91123783       0.00000000
H        2.43999767      -2.37811196       0.66008878       0.00000000
Si       3.32185683       0.43684893      -1.03887033       0.00000000
Si       1.73257184       2.80611543       1.83147285       0.00000000
