10
Lattice="16.290000149 0.0 0.0 0.0 16.290000149 0.0 0.0 0.0 29.1751946751" Properties=species:S:1:pos:R:3:initial_magmoms:R:1 pbc="T T T"
Si       0.97769323      -1.45815049      -1.50409799       0.00000000
Si      -1.69266134       0.92429461      -1.31378819       0.00000000
Si      -1.26296371      -1.48333483       1.32893012       0.00000000
Si       1.50529375       1.28221849       1.28610093       0.00000000
H       -1.15932673       1.18532557      -2.69963911       0.00000000
Si      -0.91694782      -2.95738437      -1.82067802       0.00000000
Si      -2.64008774      -2.51102207      -0.30371378       0.00000000
Si      -2.57489516      -0.06243957       2.62961835       0.00000000
H        0.12416238       2.93480643      -2.26682510       0.00000000
Si       0.16101036       2.63435366       2.63033723       0.00000000
