10
Lattice="16.290000149 0.0 0.0 0.0 16.290000149 0.0 0.0 0.0 29.1751946751" Properties=species:S:1:pos:R:3:initial_magmoms:R:1 pbc="T T T"
Si      -0.97769323       1.45815049       1.50409799       0.00000000
Si       1.56397033      -1.28269090       1.12210716       0.00000000
Si       1.61415982       1.02558583      -1.40189728       0.00000000
Si      -1.89464105      -1.49923387      -0.31658004       0.00000000
H       -0.38333628      -2.35849880      -2.01629770       0.00000000
H        0.75287494      -0.72057187      -3.15792307       0.00000000
H       -2.48955185      -1.57547107      -1.72489586       0.00000000
Si       0.17021421      -2.71735121       2.29830514       0.00000000
Si      -2.67035456       2.38244510       0.19030979       0.00000000
H        1.40318803      -1.14385123      -3.11074678       0.00000000
