10
Lattice="16.290000149 0.0 0.0 0.0 16.290000149 0.0 0.0 0.0 29.1751946751" Properties=species:S:1:pos:R:3:initial_magmoms:R:1 pbc="T T T"
Si       1.40885695      -1.19093226      -1.46193983       0.00000000
Si      -1.31096708      -1.43265958       1.34923605       0.00000000
Si      -1.83236275       1.18977144      -0.93929539       0.00000000
Si       1.44976114       1.42456898       1.29190680       0.00000000
H        0.81837703       2.60976912      -1.37704001       0.00000000
Si      -0.42186213       2.57301888      -2.26215707       0.00000000
Si      -2.76433158       1.98221316       1.06859986       0.00000000
Si      -2.48351282       0.15425262       2.63828368       0.00000000
Si      -0.13678713      -2.49947540      -2.65228777       0.00000000
Si       2.79911073      -2.50530722      -0.03110076       0.00000000
