10
Lattice="16.290000149 0.0 0.0 0.0 16.290000149 0.0 0.0 0.0 29.1751946751" Properties=species:S:1:pos:R:3:initial_magmoms:R:1 pbc="T T T"
Si      -0.85116880       1.83884780      -1.13059714       0.00000000
Si       1.72313993      -0.44636229      -1.51696425       0.00000000
Si       1.37712403       1.02768724       1.63264389       0.00000000
Si      -1.38969991      -1.74433322       0.91709307       0.00000000
H       -1.98014726      -1.15838191      -2.18402590       0.00000000
H        1.12822912      -0.52259949      -2.92528007       0.00000000
Si       2.19530558      -2.48365487      -0.45965519       0.00000000
Si       0.32573484      -3.38077776       0.82221534       0.00000000
H       -0.43363980      -3.14014188      -1.58587606       0.00000000
Si       2.64008774       2.51102207       0.30371378       0.00000000
