10
Lattice="16.290000149 0.0 0.0 0.0 16.290000149 0.0 0.0 0.0 29.1751946751" Properties=species:S:1:pos:R:3:initial_magmoms:R:1 pbc="T T T"
Si      -1.28896418      -1.41040450      -1.31886468       0.00000000
Si       1.41421473      -1.22565961       1.38001588       0.00000000
Si      -1.33967495       1.30779379       1.41931487       0.00000000
Si       1.46235168       1.38588805      -1.21552614       0.00000000
Si       2.07508375       0.66222109       2.66950114       0.00000000
Si       0.42606332       2.32262822       2.57625722       0.00000000
Si      -2.61190767      -0.03854214      -2.65683910       0.00000000
Si       0.11665269       2.72464913      -2.61838620       0.00000000
Si      -2.60377896      -2.74294281       0.12209819       0.00000000
Si       0.11435743      -2.72991080      -2.63171926       0.00000000
