10
Lattice="16.290000149 0.0 0.0 0.0 16.290000149 0.0 0.0 0.0 29.1751946751" Properties=species:S:1:pos:R:3:initial_magmoms:R:1 pbc="T T T"
Si      -1.30929247      -1.28829466       1.47165517       0.00000000
Si      -1.34674318       1.36353817      -1.37664031       0.00000000
Si       1.37104786       1.40602249       1.31151253       0.00000000
Si       1.43444854      -1.36984240      -1.28248904       0.00000000
Si      -2.62042571      -2.64849338       0.12758021       0.00000000
Si       2.65204460       0.06270021      -2.72680122       0.00000000
Si       2.74691757      -2.63510300       0.19017559       0.00000000
Si      -2.71283888       2.70923879       0.01292753       0.00000000
Si       2.70857090       0.06789672       2.73260708       0.00000000
Si      -2.73491184      -0.01415601      -2.71807784       0.00000000
