10
Lattice="16.290000149 0.0 0.0 0.0 16.290000149 0.0 0.0 0.0 29.1751946751" Properties=species:S:1:pos:R:3:initial_magmoms:R:1 pbc="T T T"
Si       1.34428339      -1.35213517      -1.34423630       0.00000000
Si       1.30266244       1.18314271       1.55461104       0.00000000
Si      -1.32263398      -1.40234095       1.34278162       0.00000000
Si      -1.21280680       1.41540553      -1.45066741       0.00000000
Si      -0.16101036      -2.63435366      -2.63033723       0.00000000
Si       0.41358681       2.89999307      -2.38214385       0.00000000
Si      -2.70624143      -0.04873968       2.66790146       0.00000000
Si      -2.69615792       2.70957274      -0.10738310       0.00000000
Si      -2.73590552      -2.69679323      -0.00071888       0.00000000
Si      -0.01914075       2.67069421       2.76323141       0.00000000
