10
Lattice="16.290000149 0.0 0.0 0.0 16.290000149 0.0 0.0 0.0 29.1751946751" Properties=species:S:1:pos:R:3:initial_magmoms:R:1 pbc="T T T"
Si       1.28896418       1.41040450       1.31886468       0.00000000
Si      -1.32294349       1.37186236      -1.33797443       0.00000000
Si       1.40332161      -1.31950630      -1.31285459       0.00000000
Si      -1.31481478      -1.33253830       1.44096287       0.00000000
Si      -2.56328039       2.73621503       0.07874385       0.00000000
Si       0.01265733      -2.68631876      -2.63539533       0.00000000
Si       2.76965841      -2.56205864       0.13490610       0.00000000
Si      -2.71192664       0.01716966      -2.67017217       0.00000000
Si       2.73606843       0.08008164      -2.65383406       0.00000000
Si       2.70317891       0.18474489       2.69888056       0.00000000
