10
Lattice="16.290000149 0.0 0.0 0.0 16.290000149 0.0 0.0 0.0 29.1751946751" Properties=species:S:1:pos:R:3:initial_magmoms:R:1 pbc="T T T"
Si       1.32978529       1.32978529      -1.40213068       0.00000000
Si      -1.20277216       1.47150829       1.42745475       0.00000000
Si       1.46911366      -1.21116151       1.45391665       0.00000000
Si      -1.56214585      -1.12401001      -1.46520745       0.00000000
H        1.83809846      -3.00177462      -0.81906442       0.00000000
Si      -2.52967412       0.08967645       2.80407756       0.00000000
Si      -0.17088210       2.64183077      -2.69826788       0.00000000
Si       2.92131831       2.46119096      -0.06185141       0.00000000
H        2.01732104       3.20070810       0.91543008       0.00000000
Si      -2.59851566       2.89904988       0.20288430       0.00000000
