10
Lattice="16.290000149 0.0 0.0 0.0 16.290000149 0.0 0.0 0.0 29.1751946751" Properties=species:S:1:pos:R:3:initial_magmoms:R:1 pbc="T T T"
Si       1.76573828       1.01483443       1.15694234       0.00000000
Si       1.33967495      -1.30779379      -1.41931487       0.00000000
Si      -1.23817033       1.48361176      -1.36434880       0.00000000
Si      -1.29700981      -1.29878542       1.49747522       0.00000000
Si      -2.28990161       0.47353401       2.76084867       0.00000000
H       -3.15923376      -0.80910802      -1.58298771       0.00000000
Si      -2.51256962       0.01801674      -2.65943570       0.00000000
Si       3.41475870      -0.64557271       1.25018627       0.00000000
Si       2.75388969      -2.53345340      -0.03929899       0.00000000
Si       2.67872762       2.75494854      -0.11827624       0.00000000
