10
Lattice="16.290000149 0.0 0.0 0.0 16.290000149 0.0 0.0 0.0 29.1751946751" Properties=species:S:1:pos:R:3:initial_magmoms:R:1 pbc="T T T"
Si      -1.23038371       1.85362283       0.65819239       0.00000000
Si      -1.52889796      -0.72601273      -1.61957341       0.00000000
Si       1.62961903       0.65221903      -1.56699971       0.00000000
Si       0.07359822      -1.46093608       1.93244819       0.00000000
H        0.28140975      -2.60027498      -0.87254255       0.00000000
H        0.07765443       2.41627943       1.55500870       0.00000000
H        1.53424108      -0.46066491      -2.57281454       0.00000000
Si      -2.73729018      -2.04152798      -0.11106997       0.00000000
H       -0.25423803       3.10151829      -2.01778564       0.00000000
Si       2.32026617      -1.96853249       2.19397464       0.00000000
