10
Lattice="16.290000149 0.0 0.0 0.0 16.290000149 0.0 0.0 0.0 29.1751946751" Properties=species:S:1:pos:R:3:initial_magmoms:R:1 pbc="T T T"
Si       1.36231642      -1.35603174      -1.33812030       0.00000000
Si       1.37132479       1.34899120       1.34132958       0.00000000
Si      -1.34332228      -1.35510973       1.36691622       0.00000000
Si      -1.32742324       1.37213929      -1.37138003       0.00000000
Si       0.00133578       2.70464501       2.67583215       0.00000000
Si       2.71221986       0.01787013      -2.67399412       0.00000000
Si       0.00788436      -2.72841213      -2.67562793       0.00000000
Si       0.04474863      -2.70462872       2.70045602       0.00000000
Si      -2.68716584       2.72650619      -0.01689244       0.00000000
Si      -2.69900867      -2.71823087       0.01709666       0.00000000
