10
Lattice="16.290000149 0.0 0.0 0.0 16.290000149 0.0 0.0 0.0 29.1751946751" Properties=species:S:1:pos:R:3:initial_magmoms:R:1 pbc="T T T"
Si       1.31945743       1.32322042      -1.37011820       0.00000000
Si      -1.26035731       1.39833361       1.36456470       0.00000000
Si      -1.72462232      -0.94314214      -1.27071627       0.00000000
Si       1.44774037      -1.38890170       1.22288995       0.00000000
Si      -3.42821424       0.72598015      -1.14456039       0.00000000
Si      -2.57282633       2.66359421      -0.10809993       0.00000000
Si      -2.59160870      -2.67248041       0.10868052       0.00000000
Si       2.58699212      -0.10443519      -2.69243284       0.00000000
Si      -2.67165776      -0.00690696       2.62144959       0.00000000
Si       2.80804090       0.00656487       2.54130533       0.00000000
