10
Lattice="16.290000149 0.0 0.0 0.0 16.290000149 0.0 0.0 0.0 29.1751946751" Properties=species:S:1:pos:R:3:initial_magmoms:R:1 pbc="T T T"
H        1.18749214       0.41374971       0.87793996       0.00000000
Si       0.80003449       1.49543830      -1.64142563       0.00000000
Si      -0.77588293      -2.07762662       1.16056007       0.00000000
Si       0.72977572      -2.35195022      -0.62116907       0.00000000
Si      -2.23102955       1.44184420       1.02664593       0.00000000
Si      -3.43870500      -0.16765668      -0.38972225       0.00000000
Si      -0.28189845      -1.18011277       3.26015295       0.00000000
H        2.73399960      -1.56801025       1.47608980       0.00000000
Si       1.23857758       3.32045589      -0.16956623       0.00000000
H       -2.02974233      -1.53456688      -2.51414323       0.00000000
