10
Lattice="16.290000149 0.0 0.0 0.0 16.290000149 0.0 0.0 0.0 29.1751946751" Properties=species:S:1:pos:R:3:initial_magmoms:R:1 pbc="T T T"
Si      -1.37746612       1.34998489       1.33377320       0.00000000
Si       1.36357075       1.34469064      -1.35387491       0.00000000
Si       1.33516099      -1.33001335       1.40571923       0.00000000
Si      -1.39048183      -1.37912770      -1.30401450       0.00000000
Si       2.60294654      -2.75200819       0.01575461       0.00000000
Si       2.70951572       2.67617009       0.04945196       0.00000000
Si      -2.87627646      -0.00868257       2.50299830       0.00000000
Si      -0.03715749       2.64056015       2.76154888       0.00000000
Si       0.00430056       2.67090842      -2.74243912       0.00000000
Si       2.68798034      -0.02669931      -2.72633442       0.00000000
