10
Lattice="16.290000149 0.0 0.0 0.0 16.290000149 0.0 0.0 0.0 29.1751946751" Properties=species:S:1:pos:R:3:initial_magmoms:R:1 pbc="T T T"
Si      -1.36909306      -1.34407162       1.34211731       0.00000000
Si      -1.38075670       1.34653141      -1.33631144       0.00000000
Si       1.35132067      -1.36374994      -1.35542119       0.00000000
Si       1.36557442       1.36226755       1.35227027       0.00000000
Si       0.00674406       2.70552467      -2.64058852       0.00000000
Si      -0.00425169      -2.70115895       2.67221443       0.00000000
Si       2.71577108      -0.00309510      -2.68528492       0.00000000
Si      -2.70829397      -2.70635546      -0.02386531       0.00000000
Si      -2.70014897       2.71570592       0.05213607       0.00000000
Si      -2.68902290       0.01635516       2.73301554       0.00000000
