10
Lattice="16.290000149 0.0 0.0 0.0 16.290000149 0.0 0.0 0.0 29.1751946751" Properties=species:S:1:pos:R:3:initial_magmoms:R:1 pbc="T T T"
Si       1.36742985      -1.35822763       1.33960824       0.00000000
Si       1.39976844       1.33428133      -1.33394825       0.00000000
Si      -1.35288451       1.35883036       1.36003088       0.00000000
Si      -1.35622396      -1.34890975      -1.36682870       0.00000000
Si       0.08526186       2.77130532      -2.60931271       0.00000000
Si       2.69932470      -2.70640433      -0.05091071       0.00000000
Si       0.01865205      -2.71208954       2.69570046       0.00000000
Si      -2.71458191      -0.00467523       2.70089365       0.00000000
Si       2.68094632       0.00672777       2.73476605       0.00000000
Si      -2.71096553       2.71350840       0.00796483       0.00000000
