10
Lattice="16.290000149 0.0 0.0 0.0 16.290000149 0.0 0.0 0.0 29.1751946751" Properties=species:S:1:pos:R:3:initial_magmoms:R:1 pbc="T T T"
Si      -1.31255568      -1.38394466      -1.36423210       0.00000000
Si       1.34460268      -1.36262105       1.35469181       0.00000000
Si      -1.38128450       1.34718790       1.34057102       0.00000000
Si       1.32464743       1.38361234      -1.36201479       0.00000000
Si      -2.62706226       0.05307934      -2.63959656       0.00000000
Si       2.68153928      -0.01128897      -2.65050809       0.00000000
Si      -0.01204157       2.71717691       2.66471641       0.00000000
Si       2.66399495      -2.73179556      -0.03375570       0.00000000
Si       2.70028907       0.00050010       2.70451137       0.00000000
Si      -0.03137780      -2.71149822       2.70448220       0.00000000
