10
Lattice="16.290000149 0.0 0.0 0.0 16.290000149 0.0 0.0 0.0 29.1751946751" Properties=species:S:1:pos:R:3:initial_magmoms:R:1 pbc="T T T"
Si       1.36301689       1.35151615      -1.34917770       0.00000000
Si       1.37054287      -1.35089713       1.35031554       0.00000000
Si      -1.35340579       1.36078516       1.35828036       0.00000000
Si      -1.36961434      -1.36143676      -1.35165759       0.00000000
Si       2.66269826      -2.71722089      -0.06322265       0.00000000
Si      -0.02505402       2.70103515      -2.68271750       0.00000000
Si      -0.00491958      -2.67131567       2.71583135       0.00000000
Si      -2.69099237       0.00050499       2.71869052       0.00000000
Si       2.68498298      -0.01552437      -2.73240286       0.00000000
Si       2.72347625       2.69505672       0.02809571       0.00000000
