10
Lattice="10.86 0.0 0.0 0.0 10.86 0.0 0.0 0.0 10.86" Properties=species:S:1:pos:R:3:initial_magmoms:R:1 pbc="T T T"
Si      -1.27113042      -1.24484922       1.27814598       0.00000000
Si       1.44386958      -1.24484922      -1.43685402       0.00000000
Si       1.44386958       1.47015078       1.27814598       0.00000000
Si      -1.60985382       0.10292022      -1.97215428       0.00000000
Si       0.52263750       0.58105344      -3.20384118       0.00000000
Si      -2.62863042      -2.60234922      -0.07935402       0.00000000
Si       0.08636958      -2.60234922       2.63564598       0.00000000
Si      -2.62863042       0.11265078       2.63564598       0.00000000
Si       0.08636958      -2.60234922      -2.79435402       0.00000000
Si       2.80136958      -2.60234922      -0.07935402       0.00000000
