10
Lattice="10.86 0.0 0.0 0.0 10.86 0.0 0.0 0.0 10.86" Properties=species:S:1:pos:R:3:initial_magmoms:R:1 pbc="T T T"
Si       1.11181422      -1.54924416      -1.16516940       0.00000000
Si       1.11181422       1.16575584       1.54983060       0.00000000
Si      -1.60318578       1.16575584      -1.16516940       0.00000000
Si       2.46931422      -0.19174416      -2.52266940       0.00000000
Si       2.46931422       2.52325584       0.19233060       0.00000000
Si      -0.24568578       2.52325584      -2.52266940       0.00000000
Si       2.46931422      -2.90674416       0.19233060       0.00000000
Si       2.46931422      -0.19174416       2.90733060       0.00000000
Si      -0.15346266      -2.71746522       2.68463544       0.00000000
Si      -0.24568578      -2.90674416      -2.52266940       0.00000000
