10
Lattice="10.86 0.0 0.0 0.0 10.86 0.0 0.0 0.0 10.86" Properties=species:S:1:pos:R:3:initial_magmoms:R:1 pbc="T T T"
Si       0.18895314       0.45381768       2.13750864       0.00000000
Si       1.11018522      -1.37208498      -1.52550420       0.00000000
Si      -1.60481478      -1.37208498       1.18949580       0.00000000
Si      -1.60481478       1.34291502      -1.52550420       0.00000000
Si       2.55990834       0.17469396       2.32430064       0.00000000
Si       2.46768522      -2.72958498      -0.16800420       0.00000000
Si      -0.24731478      -2.72958498       2.54699580       0.00000000
Si       2.46768522      -0.01458498      -2.88300420       0.00000000
Si      -1.94353818      -0.02431554       3.36919554       0.00000000
Si      -0.24731478       2.70041502      -2.88300420       0.00000000
