10
Lattice="10.86 0.0 0.0 0.0 10.86 0.0 0.0 0.0 10.86" Properties=species:S:1:pos:R:3:initial_magmoms:R:1 pbc="T T T"
Si       1.42955610       1.13269800       1.43525760       0.00000000
Si      -1.45205802      -1.47920802       1.10646024       0.00000000
Si      -1.45205802       1.23579198      -1.60853976       0.00000000
Si       1.26294198      -1.47920802      -1.60853976       0.00000000
Si      -0.11652780       2.49898374       2.37040134       0.00000000
Si       2.44885398       2.56014726      -0.08239482       0.00000000
Si      -2.80955802      -0.12170802       2.46396024       0.00000000
Si      -2.80955802       2.59329198      -0.25103976       0.00000000
Si      -0.05639598      -2.85038076       2.60914758       0.00000000
Si       1.79746032      -0.88984668       3.33408516       0.00000000
