10
Lattice="10.86 0.0 0.0 0.0 10.86 0.0 0.0 0.0 10.86" Properties=species:S:1:pos:R:3:initial_magmoms:R:1 pbc="T T T"
Si      -1.54608390       1.36628574       0.93514374       0.00000000
Si       1.01929788       1.42744926      -1.51765242       0.00000000
Si      -1.42955610      -1.13269800      -1.43525760       0.00000000
Si       0.36790422      -2.02254468       1.89882756       0.00000000
Si      -0.16661412       2.81809398       2.38620264       0.00000000
Si      -2.88161412       0.10309398       2.38620264       0.00000000
Si       2.54838588       2.81809398      -0.32879736       0.00000000
Si      -2.88161412      -2.61190602      -0.32879736       0.00000000
Si      -1.44858282      -1.12532406       3.50914836       0.00000000
Si       2.54838588       0.10309398      -3.04379736       0.00000000
