10
Lattice="10.86 0.0 0.0 0.0 10.86 0.0 0.0 0.0 10.86" Properties=species:S:1:pos:R:3:initial_magmoms:R:1 pbc="T T T"
Si      -1.43303130       1.22841804      -1.12294572       0.00000000
Si       1.28196870       1.22841804       1.59205428       0.00000000
Si       1.81648704      -0.89722062      -1.61032080       0.00000000
Si      -1.43303130      -1.48658196       1.59205428       0.00000000
Si      -0.09750108       2.49160980      -2.57400462       0.00000000
Si       2.46955314       2.63560254       0.27505122       0.00000000
Si      -0.03736926      -2.85775470      -2.33525838       0.00000000
Si      -2.79053130      -0.12908196      -2.48044572       0.00000000
Si       2.58254058      -2.74623336       0.04303818       0.00000000
Si      -2.79053130       2.58591804       0.23455428       0.00000000
