10
Lattice="16.28999089631971 0.0 0.0 0.0 16.28999089631971 0.0 0.0 0.0 34.185847837958455" Properties=species:S:1:pos:R:3:initial_magmoms:R:1 pbc="T T T"
Si      -1.52984670       1.18737321       1.35977704       0.00000000
Si       1.33755887       1.37115699      -1.39156990       0.00000000
Si      -1.37411430      -1.34761991      -1.38572412       0.00000000
Si       1.46499554      -1.36718290       1.58889072       0.00000000
Si       2.69023160       2.69822184      -0.04167257       0.00000000
Si       2.69190947      -2.70868069      -0.01316156       0.00000000
Si       2.69233301       0.01268828      -2.74652674       0.00000000
Si      -2.73758730       2.70679038      -0.02967333       0.00000000
Si      -2.75218314      -2.69672383      -0.03145100       0.00000000
Si      -0.02204526      -2.70353305      -2.74724464       0.00000000
