10
Lattice="16.28999089631971 0.0 0.0 0.0 16.28999089631971 0.0 0.0 0.0 34.185847837958455" Properties=species:S:1:pos:R:3:initial_magmoms:R:1 pbc="T T T"
Si       1.80900776      -0.76711239       1.32039492       0.00000000
Si      -0.45256715       2.27421432      -0.47826028       0.00000000
Si      -2.10105555      -0.88231527       0.69640030       0.00000000
Si       0.60353147      -0.84771531      -2.15600007       0.00000000
Si      -2.13555777       1.59407424      -2.05600641       0.00000000
Si      -0.30665273       0.89857269      -3.45400325       0.00000000
Si      -1.39501891      -3.10919085       1.34880338       0.00000000
Si      -3.52959081      -0.01322748      -1.06529999       0.00000000
Si       2.23165181      -2.99696904       0.55011897       0.00000000
Si       1.12934009      -0.73977777       3.53536562       0.00000000
