10
Lattice="16.28999089631971 0.0 0.0 0.0 16.28999089631971 0.0 0.0 0.0 34.185847837958455" Properties=species:S:1:pos:R:3:initial_magmoms:R:1 pbc="T T T"
Si      -0.78787792      -1.37134107      -1.73298415       0.00000000
Si       2.22950967      -0.84808998       0.48889208       0.00000000
Si      -2.20720933       1.18581426       0.48725116       0.00000000
Si       2.17311369       1.51560531       0.03165611       0.00000000
Si       0.05745646       1.51659900       2.77278494       0.00000000
Si       1.96847871       1.32880788      -2.31910084       0.00000000
Si       1.95508833      -0.26404461       2.74900901       0.00000000
Si      -1.30878325       3.07083509       1.48537592       0.00000000
Si      -2.32088095      -2.78526420      -0.69677634       0.00000000
Si       0.89200782       3.57405111       0.52820583       0.00000000
