10
Lattice="16.28999089631971 0.0 0.0 0.0 16.28999089631971 0.0 0.0 0.0 34.185847837958455" Properties=species:S:1:pos:R:3:initial_magmoms:R:1 pbc="T T T"
Si      -1.34918667      -1.35368108       1.39407914       0.00000000
Si       1.36533006       1.36409202       1.39411333       0.00000000
Si       1.32463764      -1.46292345      -1.44019246       0.00000000
Si      -1.50288282       1.30587156      -1.45435566       0.00000000
Si      -2.68053579      -2.71091326       0.04142985       0.00000000
Si       2.70343953       2.70441693       0.03539605       0.00000000
Si       2.70650205      -2.70476621       0.04262636       0.00000000
Si      -2.70726768       2.71422351       0.02467536       0.00000000
Si      -2.70813105       0.00447975       2.75173666       0.00000000
Si       0.00527796      -2.71116818       2.75272805       0.00000000
