10
Lattice="16.28999089631971 0.0 0.0 0.0 16.28999089631971 0.0 0.0 0.0 34.185847837958455" Properties=species:S:1:pos:R:3:initial_magmoms:R:1 pbc="T T T"
Si      -2.30622417       0.35552925      -0.00451253       0.00000000
Si       0.91375497       2.15446653      -0.55979357       0.00000000
Si       0.59813622      -0.52111873       2.27800943       0.00000000
Si       0.29610333      -2.06984717      -1.25745874       0.00000000
Si       3.16112337       1.54201140      -0.24490755       0.00000000
Si      -3.01141827      -1.05272333       1.79527080       0.00000000
Si       1.49169159      -3.34004363       0.34965305       0.00000000
Si       0.35852661      -2.87833616       2.35961109       0.00000000
Si       2.17474758      -1.73277870      -2.60868932       0.00000000
Si      -0.61509411       0.95687460       3.67740789       0.00000000
