10
Lattice="16.28999089631971 0.0 0.0 0.0 16.28999089631971 0.0 0.0 0.0 34.185847837958455" Properties=species:S:1:pos:R:3:initial_magmoms:R:1 pbc="T T T"
Si      -0.37240569      -2.23890479      -0.54006833       0.00000000
Si      -2.15963046       0.84621663       0.35026839       0.00000000
Si       0.95299758       0.61877565       2.09132041       0.00000000
Si       0.44582472       1.40546862      -2.43885393       0.00000000
Si      -1.17108810      -0.45438349      -2.59662171       0.00000000
Si      -1.45728711       3.07517733       0.54304250       0.00000000
Si      -3.40052936       0.09774000      -1.48790567       0.00000000
Si       1.77253119      -3.29076638      -0.04669789       0.00000000
Si       0.01757691       2.85946515       2.41755614       0.00000000
Si       3.25922175       0.26324640       2.09583294       0.00000000
