10
Lattice="16.28999089631971 0.0 0.0 0.0 16.28999089631971 0.0 0.0 0.0 34.185847837958455" Properties=species:S:1:pos:R:3:initial_magmoms:R:1 pbc="T T T"
Si       1.21323033      -1.47799333      -1.39939846       0.00000000
Si       0.95218308      -0.33423822       2.16468328       0.00000000
Si      -2.34703062      -0.42148746      -0.17486071       0.00000000
Si       1.00100421       2.12594274      -0.60040638       0.00000000
Si       3.16933353       1.23996222      -0.08594327       0.00000000
Si      -0.50417550       1.28715435       3.20536944       0.00000000
Si       3.41088165      -1.07632917      -0.64211314       0.00000000
Si      -2.39632416      -2.00959793      -1.88213709       0.00000000
Si       0.61509411      -0.95687460      -3.67740789       0.00000000
Si       3.08724822       0.71746047       2.18820316       0.00000000
