10
Lattice="16.28999089631971 0.0 0.0 0.0 16.28999089631971 0.0 0.0 0.0 34.185847837958455" Properties=species:S:1:pos:R:3:initial_magmoms:R:1 pbc="T T T"
Si       1.93922676       0.65891421      -1.12750083       0.00000000
Si      -1.35366642       1.33032285       1.37253179       0.00000000
Si       1.33209846      -1.40597361       1.35393468       0.00000000
Si      -1.81653048      -0.85631643      -1.47513182       0.00000000
Si       0.62219655       1.78256583      -2.69409728       0.00000000
Si       2.76855066       2.55728565      -0.01644682       0.00000000
Si      -2.69737965       2.63476089       0.02697949       0.00000000
Si      -0.00866628       2.68138287       2.71316475       0.00000000
Si       2.71031391      -0.03145599       2.71395102       0.00000000
Si      -2.71876842      -0.03929148       2.71395102       0.00000000
