10
Lattice="16.28999089631971 0.0 0.0 0.0 16.28999089631971 0.0 0.0 0.0 34.185847837958455" Properties=species:S:1:pos:R:3:initial_magmoms:R:1 pbc="T T T"
Si      -1.80864612      -0.91647540      -1.16908828       0.00000000
Si       0.96128919       1.83710475      -1.10601535       0.00000000
Si      -1.69502337       0.59839686       1.60960736       0.00000000
Si       1.73161071      -1.72755450       0.32462899       0.00000000
Si      -0.34534800      -2.19414897      -2.42829050       0.00000000
Si      -0.30843486      -0.53061417       3.31380701       0.00000000
Si       2.38941720       0.55459305      -2.42193193       0.00000000
Si       0.13932837      -3.09948201       2.07309934       0.00000000
Si       0.97257816      -3.57477534      -1.01197003       0.00000000
Si      -2.66626575       2.76253965       0.22043047       0.00000000
