10
Lattice="16.28999089631971 0.0 0.0 0.0 16.28999089631971 0.0 0.0 0.0 34.185847837958455" Properties=species:S:1:pos:R:3:initial_magmoms:R:1 pbc="T T T"
Si       2.31258542       0.49358700       0.13646998       0.00000000
Si      -1.11034173       2.09057715      -0.13811090       0.00000000
Si      -1.06215591      -0.61836840       2.07121912       0.00000000
Si      -0.15149211      -1.52759475      -1.97454149       0.00000000
Si      -1.62367221       0.34399593      -2.91909699       0.00000000
Si      -3.12153771       0.87602733      -1.09982771       0.00000000
Si       1.20312238      -3.28990559      -0.89932760       0.00000000
Si       0.18504300      -2.36182194       2.92207116       0.00000000
Si       2.54061284       2.09497545       1.84938703       0.00000000
Si      -3.26298378      -1.21588560       1.53956052       0.00000000
