10
Lattice="16.28999089631971 0.0 0.0 0.0 16.28999089631971 0.0 0.0 0.0 34.185847837958455" Properties=species:S:1:pos:R:3:initial_magmoms:R:1 pbc="T T T"
Si       1.34368065       1.33248942      -1.36927046       0.00000000
Si      -1.35918873       1.35241209       1.35410219       0.00000000
Si       1.35539316      -1.36130643       1.35475172       0.00000000
Si      -1.36427121      -1.35446463      -1.37770411       0.00000000
Si      -0.04572603       2.65821849      -2.75248191       0.00000000
Si       2.57973327      -0.12388545      -2.83006674       0.00000000
Si      -0.00128691       2.71246419       2.71196482       0.00000000
Si       2.71329498      -0.00241092       2.71169134       0.00000000
Si      -2.71652692      -0.00314397       2.71172552       0.00000000
Si      -0.00110772      -2.71803537       2.71196482       0.00000000
