10
Lattice="16.28999089631971 0.0 0.0 0.0 16.28999089631971 0.0 0.0 0.0 34.185847837958455" Properties=species:S:1:pos:R:3:initial_magmoms:R:1 pbc="T T T"
Si      -1.35762489       1.35708732      -1.35704217       0.00000000
Si       1.35721764      -1.35767376      -1.35728148       0.00000000
Si       1.35871632       1.35690813       1.35656357       0.00000000
Si      -1.35886293      -1.35733167       1.35772589       0.00000000
Si       2.71433754       0.00188964       2.71097343       0.00000000
Si      -0.00112401       2.71381626      -2.71425528       0.00000000
Si       2.71451673      -0.00081450      -2.71418691       0.00000000
Si      -2.71510317       0.00091224       2.71360575       0.00000000
Si       0.00123804       2.71205694       2.71712689       0.00000000
Si       2.71471221       2.71450044      -0.00047860       0.00000000
