10
Lattice="16.28999089631971 0.0 0.0 0.0 16.28999089631971 0.0 0.0 0.0 34.185847837958455" Properties=species:S:1:pos:R:3:initial_magmoms:R:1 pbc="T T T"
Si      -1.24719891       1.74345354      -0.85085204       0.00000000
Si      -0.81132834      -0.83844956       2.05176736       0.00000000
Si      -0.01325843      -1.54208375      -1.79790311       0.00000000
Si       2.24504219       0.73871892       0.29591286       0.00000000
Si       1.11177947      -2.18519666       2.70270045       0.00000000
Si       2.96217686      -0.74173420       2.01659011       0.00000000
Si      -0.18504300       2.36182194      -2.92207116       0.00000000
Si      -0.72335093       1.06230348       3.57098729       0.00000000
Si      -3.04703214      -1.72847393       1.65025435       0.00000000
Si      -3.44802678       1.14593634      -1.38251065       0.00000000
