10
Lattice="16.28999089631971 0.0 0.0 0.0 16.28999089631971 0.0 0.0 0.0 34.185847837958455" Properties=species:S:1:pos:R:3:initial_magmoms:R:1 pbc="T T T"
Si      -1.34368065      -1.33248942       1.36927046       0.00000000
Si      -1.38940668       1.32572907      -1.38321146       0.00000000
Si       1.37298636       1.38160377       1.36592024       0.00000000
Si       1.23605262      -1.45637487      -1.46079628       0.00000000
Si       1.96739217       0.44978319      -2.65006482       0.00000000
Si       0.36310410       2.24761275      -2.79386531       0.00000000
Si      -2.70795186      -2.68695405      -0.00843365       0.00000000
Si      -2.67499719       2.73622558       0.01258724       0.00000000
Si       0.01171251      -2.69379585       2.72402218       0.00000000
Si      -2.70286938       0.01992267       2.72337265       0.00000000
