10
Lattice="16.28999089631971 0.0 0.0 0.0 16.28999089631971 0.0 0.0 0.0 34.185847837958455" Properties=species:S:1:pos:R:3:initial_magmoms:R:1 pbc="T T T"
Si       1.35578412       1.35599589      -1.35734985       0.00000000
Si      -1.35736425       1.35700580       1.35745240       0.00000000
Si       1.35765747      -1.35741312       1.35687124       0.00000000
Si      -1.35790182      -1.36005210      -1.35786263       0.00000000
Si       0.00128691      -2.71246419      -2.71196482       0.00000000
Si      -0.00198738       2.71376154       2.71497318       0.00000000
Si       2.71458189      -0.00104256       2.71442621       0.00000000
Si       2.71524978       2.71404988       0.00023930       0.00000000
Si       2.71458189      -2.71487511      -0.00027349       0.00000000
Si       0.00131949       2.71348299      -2.71599876       0.00000000
