10
Lattice="16.28999089631971 0.0 0.0 0.0 16.28999089631971 0.0 0.0 0.0 34.185847837958455" Properties=species:S:1:pos:R:3:initial_magmoms:R:1 pbc="T T T"
Si      -1.35692442      -1.35637056      -1.35755496       0.00000000
Si       1.35865116      -1.35454608       1.35984542       0.00000000
Si       1.35759231       1.35853061      -1.35755496       0.00000000
Si      -1.35817875       1.35920502       1.36076843       0.00000000
Si       0.00000000      -2.71383255      -2.71469969       0.00000000
Si      -2.71458189       0.00104256      -2.71442621       0.00000000
Si       2.71419093      -2.71503801       0.00064953       0.00000000
Si       0.00066789       2.71509244      -2.71418691       0.00000000
Si      -2.71515204      -2.71417464       0.00044442       0.00000000
Si       2.71492398       0.00154755      -2.71449458       0.00000000
