10
Lattice="16.28999089631971 0.0 0.0 0.0 16.28999089631971 0.0 0.0 0.0 34.185847837958455" Properties=species:S:1:pos:R:3:initial_magmoms:R:1 pbc="T T T"
Si      -0.80117478      -1.69844427       1.47146227       0.00000000
Si      -2.14493688       1.05186159      -0.49337043       0.00000000
Si       0.71454456      -1.34550513      -1.94835511       0.00000000
Si       1.78279389       1.48416561       0.88507210       0.00000000
Si      -2.22884667      -2.99591019       0.09742972       0.00000000
Si      -1.77253119       3.29076638       0.04669789       0.00000000
Si      -0.92882322      -3.14313921      -1.87929966       0.00000000
Si       0.89580339      -3.24685764       1.73363368       0.00000000
Si       2.97838215       0.21396915       2.49218389       0.00000000
Si       0.49466214       0.34073793      -3.99102904       0.00000000
