10
Lattice="16.28999089631971 0.0 0.0 0.0 16.28999089631971 0.0 0.0 0.0 34.185847837958455" Properties=species:S:1:pos:R:3:initial_magmoms:R:1 pbc="T T T"
Si       0.96707214       1.73660264       1.32483024       0.00000000
Si       1.60428807      -1.79782956       0.14380050       0.00000000
Si      -0.97269219       0.34720506      -2.18987826       0.00000000
Si      -1.75251078      -0.92188368       1.41065386       0.00000000
Si       1.95734124      -1.75345560      -2.23141409       0.00000000
Si      -0.36310410      -2.24761275       2.79386531       0.00000000
Si       2.34893655       0.49475988       2.80764905       0.00000000
Si       2.77008192       2.60578817       0.00635857       0.00000000
Si       3.50598267      -0.94213215       1.39960499       0.00000000
Si       0.16773813      -1.18977273      -3.77206856       0.00000000
