10
Lattice="16.28999089631971 0.0 0.0 0.0 16.28999089631971 0.0 0.0 0.0 34.185847837958455" Properties=species:S:1:pos:R:3:initial_magmoms:R:1 pbc="T T T"
Si      -1.19091303       0.13900257       1.96900338       0.00000000
Si       2.19260142       0.65102985       0.58864644       0.00000000
Si      -0.82557720       1.80046854      -1.31119893       0.00000000
Si      -0.20093715      -2.38168664      -0.28264875       0.00000000
Si      -0.80583372       0.69721200      -3.39677611       0.00000000
Si      -3.38856435      -0.26266159       1.21171805       0.00000000
Si      -0.19155411      -1.65372333       3.34905264       0.00000000
Si       3.68887050      -0.72220901      -0.51066848       0.00000000
Si      -1.43246115       2.45529396       2.52517325       0.00000000
Si       0.71962704       3.61939365      -0.94517085       0.00000000
