10
Lattice="16.28999089631971 0.0 0.0 0.0 16.28999089631971 0.0 0.0 0.0 34.185847837958455" Properties=species:S:1:pos:R:3:initial_magmoms:R:1 pbc="T T T"
Si       0.49174623       1.26643021      -1.93146730       0.00000000
Si       1.49262012      -1.84050351       0.23191692       0.00000000
Si      -2.24512038      -0.78029426       0.31119395       0.00000000
Si       0.86452659       1.49277976       1.74894895       0.00000000
Si      -1.69342695      -2.48558751       1.88015431       0.00000000
Si       1.58832387      -0.41473200      -3.15350948       0.00000000
Si      -1.18980531       2.66215741       2.15658123       0.00000000
Si      -3.08131866       1.03380901       1.77185348       0.00000000
Si       0.00988803      -3.67451316       0.69240055       0.00000000
Si       2.89540089       2.26345966       0.80921366       0.00000000
