10
Lattice="16.28999089631971 0.0 0.0 0.0 16.28999089631971 0.0 0.0 0.0 34.185847837958455" Properties=species:S:1:pos:R:3:initial_magmoms:R:1 pbc="T T T"
Si      -0.62666001       2.24034741      -0.16491262       0.00000000
Si       1.63637937      -0.25616025       1.64273346       0.00000000
Si       0.40278654      -1.09330335      -2.05446805       0.00000000
Si      -1.52912601      -1.31144274       1.29519994       0.00000000
Si      -1.54639341       2.47665015       1.97857542       0.00000000
Si      -1.21259502      -3.37015665       0.29126359       0.00000000
Si      -1.13050971      -2.84765490      -1.98288284       0.00000000
Si      -2.73704580       2.19475170      -1.15261069       0.00000000
Si       0.53585955       0.14843448       3.68807388       0.00000000
Si       2.54984112      -2.01878712      -1.83150782       0.00000000
