10
Lattice="16.28999089631971 0.0 0.0 0.0 16.28999089631971 0.0 0.0 0.0 34.185847837958455" Properties=species:S:1:pos:R:3:initial_magmoms:R:1 pbc="T T T"
Si      -0.31320783       2.26383759      -0.27317926       0.00000000
Si       1.10051982      -0.40459473      -2.04534042       0.00000000
Si      -1.99945089      -1.27399203      -0.00707647       0.00000000
Si       1.75435155       0.18259461       1.68601277       0.00000000
Si      -2.06498556      -1.45987722      -2.39287394       0.00000000
Si      -2.08225296       2.32821567      -1.70949846       0.00000000
Si      -1.36954917      -2.97878940       1.52195480       0.00000000
Si       2.59972110       1.40612022      -2.17452881       0.00000000
Si      -0.53585955      -0.14843448      -3.68807388       0.00000000
Si       1.90588113      -2.62438416      -1.98554934       0.00000000
