10
Lattice="16.28999089631971 0.0 0.0 0.0 16.28999089631971 0.0 0.0 0.0 34.185847837958455" Properties=species:S:1:pos:R:3:initial_magmoms:R:1 pbc="T T T"
Si       1.35395964       1.36282140       1.38437036       0.00000000
Si      -1.36440153      -1.35508365       1.38508826       0.00000000
Si      -1.49656230       1.23962013      -1.44149152       0.00000000
Si       1.41281541      -1.47918087      -1.34452331       0.00000000
Si      -2.46811419      -0.53916642      -2.76126225       0.00000000
Si       2.69734707       2.70813105       0.00311433       0.00000000
Si      -2.70940167      -2.70614367       0.04445530       0.00000000
Si      -2.73261492       2.69599500       0.01930476       0.00000000
Si       2.70905958       0.00239463       2.74247229       0.00000000
Si      -0.00526167      -2.71243161       2.74339531       0.00000000
