10
Lattice="16.28999089631971 0.0 0.0 0.0 16.28999089631971 0.0 0.0 0.0 34.185847837958455" Properties=species:S:1:pos:R:3:initial_magmoms:R:1 pbc="T T T"
Si       1.40488218      -1.29378438       1.39003837       0.00000000
Si      -0.78379335      -1.92057471      -1.20437561       0.00000000
Si      -1.35617508       1.42107444       1.38583693       0.00000000
Si       0.91523736       1.76682969      -1.60221778       0.00000000
Si       0.23348457       0.43238547      -3.49057670       0.00000000
Si       2.52154539       2.58877422       0.06985540       0.00000000
Si      -2.64070674      -2.76623748       0.03819929       0.00000000
Si       0.01430262      -2.64375297       2.76555459       0.00000000
Si      -2.69956251       0.07576479       2.76709295       0.00000000
Si       2.73152349       0.07332129       2.77331478       0.00000000
