10
Lattice="16.28999089631971 0.0 0.0 0.0 16.28999089631971 0.0 0.0 0.0 34.185847837958455" Properties=species:S:1:pos:R:3:initial_magmoms:R:1 pbc="T T T"
Si       0.84385458       1.17253791       1.86562532       0.00000000
Si       1.71224190      -0.95941584      -1.32032655       0.00000000
Si      -1.15769772       1.59205428      -1.32859953       0.00000000
Si      -1.29086847      -1.88418285       0.81919593       0.00000000
Si       1.32779790      -0.66547908       3.27811697       0.00000000
Si      -1.80753840       0.24430113      -3.11289667       0.00000000
Si      -1.14365574       2.26031895       2.63713196       0.00000000
Si       3.15042084      -2.12587758       0.29249428       0.00000000
Si      -3.40125426      -1.92977856      -0.16850214       0.00000000
Si       0.21685248       3.51240093      -1.71613052       0.00000000
