10
Lattice="16.28999089631971 0.0 0.0 0.0 16.28999089631971 0.0 0.0 0.0 34.185847837958455" Properties=species:S:1:pos:R:3:initial_magmoms:R:1 pbc="T T T"
Si      -1.97600958      -1.30394934       0.11547986       0.00000000
Si      -0.55169343       1.70529326      -1.56896036       0.00000000
Si       1.70331498      -1.18892565      -1.18775376       0.00000000
Si       0.41498775       1.22881239       2.27065947       0.00000000
Si       1.69342695       2.48558751      -1.88015431       0.00000000
Si       3.18604707       0.64508400      -1.64823739       0.00000000
Si      -2.32906275      -1.34832330       2.49069445       0.00000000
Si      -1.38789171       3.51939653      -0.10830083       0.00000000
Si      -0.42736815      -0.49262589       3.74649894       0.00000000
Si       2.72316672      -2.77465941       0.24815521       0.00000000
