10
Lattice="16.28999089631971 0.0 0.0 0.0 16.28999089631971 0.0 0.0 0.0 34.185847837958455" Properties=species:S:1:pos:R:3:initial_magmoms:R:1 pbc="T T T"
Si       1.01985174      -1.58573376       1.43590897       0.00000000
Si      -0.84545100      -0.73811619      -2.09282459       0.00000000
Si      -1.70331498       1.18892565       1.18775376       0.00000000
Si       1.48273209       1.83400965      -0.46048363       0.00000000
Si       2.89030212       1.28080125       1.49696493       0.00000000
Si       1.14205932      -1.82589723      -2.86433123       0.00000000
Si      -2.25500841       2.89421891      -0.38120660       0.00000000
Si      -0.00988803       3.67451316      -0.69240055       0.00000000
Si       1.70160453      -0.25128954       3.32426789       0.00000000
Si      -0.53507763      -3.42176337       1.53805634       0.00000000
