10
Lattice="16.28999089631971 0.0 0.0 0.0 16.28999089631971 0.0 0.0 0.0 34.185847837958455" Properties=species:S:1:pos:R:3:initial_magmoms:R:1 pbc="T T T"
Si       1.52984670      -1.18737321      -1.35977704       0.00000000
Si       0.98633085       1.86494436       1.10751953       0.00000000
Si      -1.20774060       1.51941717      -1.38945038       0.00000000
Si      -1.30170132      -1.50140695       1.44842100       0.00000000
Si       0.15573240      -2.53499313      -2.74550116       0.00000000
Si      -0.44944110       1.17690363       3.52449451       0.00000000
Si      -2.52074718       2.79166617       0.07151683       0.00000000
Si      -2.56166766       0.18531504      -2.75175717       0.00000000
Si      -2.72171691      -2.65719941      -0.04409977       0.00000000
Si       2.75678018       2.78852220      -0.14224739       0.00000000
