10
Lattice="16.28999089631971 0.0 0.0 0.0 16.28999089631971 0.0 0.0 0.0 34.185847837958455" Properties=species:S:1:pos:R:3:initial_magmoms:R:1 pbc="T T T"
Si      -1.42001559      -1.15579246      -1.49252076       0.00000000
Si       0.76932783      -1.97454415       1.16460993       0.00000000
Si      -1.93766292       0.73879060       1.27325261       0.00000000
Si       1.30170132       1.50140695      -1.44842100       0.00000000
Si       2.16010191       0.79919392       2.60246749       0.00000000
Si       0.85226022       2.67831058       2.07607351       0.00000000
Si       0.07936488      -2.38269010      -2.83964904       0.00000000
Si       1.16427888      -1.20094834       3.31117470       0.00000000
Si      -2.55694356      -2.73349525      -0.02061408       0.00000000
Si      -2.51468730       2.81778556       0.16156241       0.00000000
