10
Lattice="16.28999089631971 0.0 0.0 0.0 16.28999089631971 0.0 0.0 0.0 34.185847837958455" Properties=species:S:1:pos:R:3:initial_magmoms:R:1 pbc="T T T"
Si       0.04880484      -0.14512761      -2.36487572       0.00000000
Si      -2.30280327       0.51953697       0.21759304       0.00000000
Si       1.25406936       2.02419540       0.14689667       0.00000000
Si       1.26697104      -1.74818416       1.10355397       0.00000000
Si      -1.58763969      -1.94891021      -2.40189901       0.00000000
Si      -2.32254675       1.62279351       2.30317023       0.00000000
Si      -3.30892254      -1.65199659      -0.06061154       0.00000000
Si       2.83872798       1.79439237      -1.56205482       0.00000000
Si       3.15074664      -2.08486655      -0.32695363       0.00000000
Si      -0.33037749      -3.45223286       1.64618624       0.00000000
