10
Lattice="16.28999089631971 0.0 0.0 0.0 16.28999089631971 0.0 0.0 0.0 34.185847837958455" Properties=species:S:1:pos:R:3:initial_magmoms:R:1 pbc="T T T"
Si       1.58465862      -0.22980303      -1.70895149       0.00000000
Si      -1.22714199       1.98487134       0.40424788       0.00000000
Si       1.45850886       0.24886233       1.86812088       0.00000000
Si      -1.25406936      -2.02419540      -0.14689667       0.00000000
Si      -1.20526452      -2.16932301      -2.51177239       0.00000000
Si      -2.03141187       1.41752322       2.52230163       0.00000000
Si      -0.03935664       0.78089373       3.68739017       0.00000000
Si       2.89250031      -2.10891969      -1.18255751       0.00000000
Si       2.88571064       2.08697706       1.32124957       0.00000000
Si      -3.55687263      -1.50465843       0.07069637       0.00000000
