10
Lattice="16.28999089631971 0.0 0.0 0.0 16.28999089631971 0.0 0.0 0.0 34.185847837958455" Properties=species:S:1:pos:R:3:initial_magmoms:R:1 pbc="T T T"
Si       1.49626908      -1.37323885      -1.09931492       0.00000000
Si       0.37763478       0.23982138       2.27065947       0.00000000
Si      -2.19260142      -0.65102985      -0.58864644       0.00000000
Si       0.51908085       2.33173431      -0.36872876       0.00000000
Si       0.05528826       2.63313189       2.08790182       0.00000000
Si       2.01694635       1.79970291      -2.18799804       0.00000000
Si      -1.47297438       2.96836380      -1.53381729       0.00000000
Si      -3.38351445      -0.51202728       1.38035694       0.00000000
Si       3.48912645      -0.07188777      -1.24344254       0.00000000
Si      -3.01817862       1.14943869      -1.89984537       0.00000000
