10
Lattice="16.28999089631971 0.0 0.0 0.0 16.28999089631971 0.0 0.0 0.0 34.185847837958455" Properties=species:S:1:pos:R:3:initial_magmoms:R:1 pbc="T T T"
Si      -0.37763478      -0.23982138      -2.27065947       0.00000000
Si       2.20082787       0.59751720       0.53165860       0.00000000
Si      -0.92774808      -1.49514670       1.54868814       0.00000000
Si      -0.32234652       2.39331051      -0.18275764       0.00000000
Si       0.14144607       2.09191293      -2.63938823       0.00000000
Si      -2.02432572       0.18601551       2.77073033       0.00000000
Si       1.67154948       2.28260367       2.17199906       0.00000000
Si      -2.76179031      -2.54457456       0.48974673       0.00000000
Si       3.26298378       1.21588560      -1.53956052       0.00000000
Si       3.44802678      -1.14593634       1.38251065       0.00000000
