10
Lattice="16.28999089631971 0.0 0.0 0.0 16.28999089631971 0.0 0.0 0.0 34.185847837958455" Properties=species:S:1:pos:R:3:initial_magmoms:R:1 pbc="T T T"
Si       1.35654975       1.35653346       1.35769171       0.00000000
Si      -1.35687555       1.35718506      -1.35697380       0.00000000
Si       1.35780408      -1.35705474      -1.35724729       0.00000000
Si      -1.35785295      -1.35936792       1.35755496       0.00000000
Si       0.00187335      -2.71316466       2.71254598       0.00000000
Si       2.71455281      -0.00216657      -2.71367412       0.00000000
Si      -0.00026064      -2.71564074      -2.71343482       0.00000000
Si      -2.71448415      -2.71466334       0.00023930       0.00000000
Si       2.71513297      -2.71446786      -0.00003419       0.00000000
Si       0.00327429       2.71415835       2.71589620       0.00000000
