10
Lattice="16.28999089631971 0.0 0.0 0.0 16.28999089631971 0.0 0.0 0.0 34.185847837958455" Properties=species:S:1:pos:R:3:initial_magmoms:R:1 pbc="T T T"
Si      -0.22823919       1.10021031       2.05244394       0.00000000
Si      -1.75435155      -0.18259461      -1.68601277       0.00000000
Si       1.69235181      -1.87634736       0.06632058       0.00000000
Si       1.55649321       2.13513030      -0.19188527       0.00000000
Si       2.39977764       0.93142962      -2.04469089       0.00000000
Si      -1.15737192      -0.75346137       3.22315776       0.00000000
Si      -2.06755938       2.08124298      -1.95919203       0.00000000
Si       3.44430777      -1.01116917      -1.24357928       0.00000000
Si      -0.65383173      -0.58718934      -3.73135319       0.00000000
Si      -2.96971587      -1.76332734       1.95146603       0.00000000
