10
Lattice="16.28999089631971 0.0 0.0 0.0 16.28999089631971 0.0 0.0 0.0 34.185847837958455" Properties=species:S:1:pos:R:3:initial_magmoms:R:1 pbc="T T T"
Si       1.34392500       1.32364395      -1.37752635       0.00000000
Si       1.35218535      -1.35553977       1.35136732       0.00000000
Si      -1.36026387       1.35487188       1.35136732       0.00000000
Si      -1.32664131      -1.36710567      -1.38327641       0.00000000
Si      -0.20997810       2.51545293      -2.70345938       0.00000000
Si       2.71212277      -0.00001629       2.70970856       0.00000000
Si      -0.00185706      -2.71459818       2.70977693       0.00000000
Si      -0.00291591       2.71494027       2.70987949       0.00000000
Si      -2.71725345       0.00001629       2.71018716       0.00000000
Si       2.71300406      -2.71533123      -0.00929856       0.00000000
