10
Lattice="16.28999089631971 0.0 0.0 0.0 16.28999089631971 0.0 0.0 0.0 34.185847837958455" Properties=species:S:1:pos:R:3:initial_magmoms:R:1 pbc="T T T"
Si      -1.35573525       1.35387819      -1.35899077       0.00000000
Si      -1.35573525      -1.35933534       1.35871728       0.00000000
Si       1.35962856       1.35635427       1.35854635       0.00000000
Si       1.35951453      -1.35824391      -1.36199912       0.00000000
Si      -2.68022628      -0.03935664      -2.69948698       0.00000000
Si      -2.71450044       2.71296918       0.00064953       0.00000000
Si       2.71367097       2.71541268       0.00013674       0.00000000
Si       0.00117288       2.71366965       2.71569108       0.00000000
Si      -2.71389771      -0.00094482       2.71565690       0.00000000
Si      -2.71529865      -2.71653669       0.00095720       0.00000000
