10
Lattice="16.28999089631971 0.0 0.0 0.0 16.28999089631971 0.0 0.0 0.0 34.185847837958455" Properties=species:S:1:pos:R:3:initial_magmoms:R:1 pbc="T T T"
Si      -1.93303656      -0.83771325       1.10618628       0.00000000
Si      -1.29513645       1.38741930      -1.46346278       0.00000000
Si       1.39447287      -1.32496344      -1.44889960       0.00000000
Si       1.69816734       1.09687086       1.33465043       0.00000000
Si      -2.73616614       2.56155363      -0.03945049       0.00000000
Si       0.48508362       2.48461596       2.81059105       0.00000000
Si       2.68439652       2.66704767      -0.15694732       0.00000000
Si      -2.67364512      -2.74551660      -0.01678526       0.00000000
Si      -2.66323581       0.03692943      -2.82935909       0.00000000
Si       0.05163930      -2.67581169      -2.82826514       0.00000000
