10
Lattice="16.28999089631971 0.0 0.0 0.0 16.28999089631971 0.0 0.0 0.0 34.185847837958455" Properties=species:S:1:pos:R:3:initial_magmoms:R:1 pbc="T T T"
Si      -1.15062786      -0.97363701      -1.76477701       0.00000000
Si       1.53300303       1.41392313      -1.03620781       0.00000000
Si      -1.75677876       1.10454345       1.12297154       0.00000000
Si       0.70407009      -1.96652880       1.12341596       0.00000000
Si       1.54735452      -3.17022948      -0.72938966       0.00000000
Si      -3.31170813      -0.73148616       1.22511891       0.00000000
Si      -2.91998250      -2.02041612      -0.64389080       0.00000000
Si      -1.63457118       0.86437998      -3.17726866       0.00000000
Si       2.32088095       2.78526420       0.69677634       0.00000000
Si       3.11025852      -0.05691726      -2.04916924       0.00000000
