10
Lattice="16.28999089631971 0.0 0.0 0.0 16.28999089631971 0.0 0.0 0.0 34.185847837958455" Properties=species:S:1:pos:R:3:initial_magmoms:R:1 pbc="T T T"
Si      -1.01716389       1.66850325       1.25684340       0.00000000
Si      -1.48942728      -1.20508533      -1.38739922       0.00000000
Si       1.13692797       1.57770279      -1.47190669       0.00000000
Si       1.73182248      -1.28202300       1.46264232       0.00000000
Si       3.32627139       0.75895110       1.18522401       0.00000000
Si      -1.19449683       0.07535754       3.42005669       0.00000000
Si      -0.04839759      -2.37921966      -2.81141151       0.00000000
Si       2.55694356       2.73349525       0.02061408       0.00000000
Si       0.61928064       3.47228585       1.29386669       0.00000000
Si      -2.49890229      -2.88608301       0.05985945       0.00000000
