10
Lattice="16.28999089631971 0.0 0.0 0.0 16.28999089631971 0.0 0.0 0.0 34.185847837958455" Properties=species:S:1:pos:R:3:initial_magmoms:R:1 pbc="T T T"
Si       1.21308372      -1.38774510      -1.47594062       0.00000000
Si      -1.73182248       1.28202300      -1.46264232       0.00000000
Si       1.59444891       2.04097410      -0.27741831       0.00000000
Si       0.03443706      -1.58550570       2.31640016       0.00000000
Si       2.19931290       0.18243171      -2.96753837       0.00000000
Si      -2.92631931       1.35738054       1.95741437       0.00000000
Si      -0.48508362      -2.48461596      -2.81059105       0.00000000
Si       1.98939996       2.81456991       1.86914646       0.00000000
Si      -2.74898637       2.95052625      -0.20579892       0.00000000
Si       3.57468316       1.34667801      -1.49549494       0.00000000
