10
Lattice="16.28999089631971 0.0 0.0 0.0 16.28999089631971 0.0 0.0 0.0 34.185847837958455" Properties=species:S:1:pos:R:3:initial_magmoms:R:1 pbc="T T T"
Si       0.90151466       0.34798698       2.20081774       0.00000000
Si       1.81092020      -1.58327397      -0.39426560       0.00000000
Si      -2.32459670      -0.79987158      -0.17804000       0.00000000
Si       0.11987159       2.37309462      -0.71092929       0.00000000
Si       2.71407038       1.52350596       1.17223338       0.00000000
Si      -1.84003436      -1.58767227      -2.38176354       0.00000000
Si      -3.05023475       1.51661529       0.25304379       0.00000000
Si       3.38873702       0.13297527      -0.69595588       0.00000000
Si      -1.50035982       3.32443062       0.70757907       0.00000000
Si      -2.32112693      -2.61153135       1.46790694       0.00000000
