10
Lattice="16.28999089631971 0.0 0.0 0.0 16.28999089631971 0.0 0.0 0.0 34.185847837958455" Properties=species:S:1:pos:R:3:initial_magmoms:R:1 pbc="T T T"
Si       1.35718995      -1.35742941       1.36066588       0.00000000
Si      -1.36081871       1.35979146       1.36066588       0.00000000
Si       1.35137442       1.36399428      -1.37042252       0.00000000
Si      -1.33763331      -1.37876931      -1.36938327       0.00000000
Si       2.73882630      -0.04675230      -2.68239063       0.00000000
Si      -2.71300406       2.71533123       0.00929856       0.00000000
Si      -2.71497515      -2.71386513      -0.00146999       0.00000000
Si      -0.00048218      -2.71446786       2.71921223       0.00000000
Si       2.71453791       0.00042354       2.71924641       0.00000000
Si      -2.71486112       0.00073305       2.71907548       0.00000000
