10
Lattice="16.28999089631971 0.0 0.0 0.0 16.28999089631971 0.0 0.0 0.0 34.185847837958455" Properties=species:S:1:pos:R:3:initial_magmoms:R:1 pbc="T T T"
Si      -1.35137442      -1.36399428       1.37042252       0.00000000
Si       1.36427121       1.35446463       1.37770411       0.00000000
Si       1.38745188      -1.41074658      -1.31196811       0.00000000
Si      -1.46653331       1.19783628      -1.49110205       0.00000000
Si       2.70795186       2.68695405       0.00843365       0.00000000
Si      -2.72045348       2.67498090       0.00219473       0.00000000
Si      -2.68900773      -2.74276359       0.00103925       0.00000000
Si       0.00508248       2.70687672       2.73180630       0.00000000
Si      -2.71219312      -0.00420282       2.73108840       0.00000000
Si       2.73116511      -2.71518462       0.03358420       0.00000000
