10
Lattice="16.28999089631971 0.0 0.0 0.0 16.28999089631971 0.0 0.0 0.0 34.185847837958455" Properties=species:S:1:pos:R:3:initial_magmoms:R:1 pbc="T T T"
Si       1.35267273       1.32706485       1.34989733       0.00000000
Si       1.35477414      -1.35846871      -1.35495684       0.00000000
Si      -1.35842473       1.35682668      -1.35656357       0.00000000
Si      -1.33755887      -1.37115699       1.39156990       0.00000000
Si      -0.11062539       2.60473842       2.60909955       0.00000000
Si      -2.71239791       2.71236645       0.00382882       0.00000000
Si       2.71420722      -0.00037467      -2.71275110       0.00000000
Si       2.71316466      -2.71406780       0.00526462       0.00000000
Si      -0.00060273      -2.71522445      -2.71247761       0.00000000
Si      -0.00100998       2.71492398      -2.71278529       0.00000000
