10
Lattice="16.28999089631971 0.0 0.0 0.0 16.28999089631971 0.0 0.0 0.0 34.185847837958455" Properties=species:S:1:pos:R:3:initial_magmoms:R:1 pbc="T T T"
Si      -1.43946163       1.27684278       1.31109637       0.00000000
Si      -1.35719713      -1.35019665      -1.35858054       0.00000000
Si       1.35516021       1.36718712      -1.35946937       0.00000000
Si       1.38109389      -1.38872250       1.42620018       0.00000000
Si      -0.06409138       2.44108908       2.78313980       0.00000000
Si      -2.42569081      -0.29333403       2.80269412       0.00000000
Si       2.70760488      -2.69865027      -0.00533300       0.00000000
Si       2.70980403       2.71528236       0.01524690       0.00000000
Si      -0.00340298      -2.70920619      -2.71934897       0.00000000
Si       2.71164480       0.00767259      -2.71822084       0.00000000
