10
Lattice="16.28999089631971 0.0 0.0 0.0 16.28999089631971 0.0 0.0 0.0 34.185847837958455" Properties=species:S:1:pos:R:3:initial_magmoms:R:1 pbc="T T T"
Si      -1.37537026      -1.16424630      -1.47204343       0.00000000
Si       0.76701628      -1.87522335       1.29530250       0.00000000
Si      -1.98023425       0.69429609       1.21807663       0.00000000
Si       1.54698148       1.61569107      -1.16584062       0.00000000
Si      -2.36159944      -2.73442311       0.01955432       0.00000000
Si       2.70792091      -2.46444894       0.12542795       0.00000000
Si       1.63998109       2.91591067       1.54721815       0.00000000
Si       0.06409138      -2.44108908      -2.78313980       0.00000000
Si      -2.74956208       2.66884024       0.05346670       0.00000000
Si      -2.67019720       0.28615014      -2.78618234       0.00000000
