10
Lattice="10.86 0.0 0.0 0.0 10.86 0.0 0.0 0.0 10.86" Properties=species:S:1:pos:R:3:initial_magmoms:R:1 pbc="T T T"
Si       0.59677872      -0.95010882      -1.98806418       0.00000000
Si      -2.11822128      -0.95010882       0.72693582       0.00000000
Si       1.84130214       0.45277512       1.86984222       0.00000000
Si       1.95427872      -2.30760882      -0.63056418       0.00000000
Si      -0.76072128      -2.30760882       2.08443582       0.00000000
Si      -2.11822128       1.76489118      -1.98806418       0.00000000
Si       3.31177872      -0.95010882       0.72693582       0.00000000
Si       0.59677872      -0.95010882       3.44193582       0.00000000
Si       0.59677872      -3.66510882       0.72693582       0.00000000
Si      -0.95777598       3.24126474       2.07229434       0.00000000
