10
Lattice="10.86 0.0 0.0 0.0 10.86 0.0 0.0 0.0 10.86" Properties=species:S:1:pos:R:3:initial_magmoms:R:1 pbc="T T T"
Si      -1.34029776       1.45436034      -1.24264464       0.00000000
Si      -1.34029776      -1.26063966       1.47235536       0.00000000
Si       1.37470224       1.45436034       1.47235536       0.00000000
Si       2.62065918      -2.35664172      -0.07815942       0.00000000
Si      -2.76665016       0.06619170      -2.62514436       0.00000000
Si      -2.89485246      -2.49926610       0.10271388       0.00000000
Si       2.80268364       0.14706612      -2.60132838       0.00000000
Si       0.01720224       2.81186034      -2.60014464       0.00000000
Si       0.01720224      -2.61813966       2.82985536       0.00000000
Si      -2.69779776       2.81186034       0.11485536       0.00000000
