10
Lattice="10.86 0.0 0.0 0.0 10.86 0.0 0.0 0.0 10.86" Properties=species:S:1:pos:R:3:initial_magmoms:R:1 pbc="T T T"
Si       1.37635296      -1.26183426       1.28633442       0.00000000
Si      -1.33864704      -1.26183426      -1.42866558       0.00000000
Si      -1.33864704       1.45316574       1.28633442       0.00000000
Si       0.01885296      -2.61933426       2.64383442       0.00000000
Si      -2.69614704      -2.61933426      -0.07116558       0.00000000
Si      -2.69614704       0.09566574       2.64383442       0.00000000
Si       2.70952656       2.63967504      -0.13367574       0.00000000
Si       2.73385296      -2.61933426      -0.07116558       0.00000000
Si       2.73385296       0.09566574       2.64383442       0.00000000
Si       0.01885296      -2.61933426      -2.78616558       0.00000000
