10
Lattice="10.86 0.0 0.0 0.0 10.86 0.0 0.0 0.0 10.86" Properties=species:S:1:pos:R:3:initial_magmoms:R:1 pbc="T T T"
Si       1.37562534       1.17730002      -1.29283956       0.00000000
Si      -1.33937466       1.17730002       1.42216044       0.00000000
Si      -1.33937466      -1.53769998      -1.29283956       0.00000000
Si       0.01812534       2.53480002      -2.65033956       0.00000000
Si      -2.69687466       2.53480002       0.06466044       0.00000000
Si       2.73312534       2.53480002       0.06466044       0.00000000
Si       0.01812534       2.53480002       2.77966044       0.00000000
Si      -2.69687466      -0.18019998      -2.65033956       0.00000000
Si       2.73312534      -0.18019998      -2.65033956       0.00000000
Si       2.70879894      -0.35119068       2.71715028       0.00000000
