10
Lattice="16.28999089631971 0.0 0.0 0.0 16.28999089631971 0.0 0.0 0.0 34.395419527814205" Properties=species:S:1:pos:R:3:initial_magmoms:R:1 pbc="T T T"
Si       0.86690493       1.70435754      -1.35627548       0.00000000
Si       1.35190710      -1.30393305       1.43034120       0.00000000
Si      -0.85569741      -1.70728974      -1.46671923       0.00000000
Si      -1.38135942       1.39173615       1.44710898       0.00000000
Si      -2.61450753      -2.58398822       0.04110943       0.00000000
Si      -0.82966599      -0.22224447      -3.63287517       0.00000000
Si      -1.04370030       3.37813875      -1.24242451       0.00000000
Si       2.59846677       2.71046052       0.00296145       0.00000000
Si      -2.84010448       2.58424560       0.07293209       0.00000000
Si       2.70293454      -2.74084952      -0.10018015       0.00000000
