10
Lattice="16.28999089631971 0.0 0.0 0.0 16.28999089631971 0.0 0.0 0.0 34.395419527814205" Properties=species:S:1:pos:R:3:initial_magmoms:R:1 pbc="T T T"
Si      -1.35777150       1.35404375      -1.35831027       0.00000000
Si       1.35837423       1.35573465       1.35755357       0.00000000
Si      -1.35664749      -1.35885443       1.35738159       0.00000000
Si       1.35933534      -1.36115132      -1.36367596       0.00000000
Si      -2.70640431      -0.00280967      -2.71999818       0.00000000
Si       0.00070047       2.71282197       2.71472879       0.00000000
Si      -2.71515204       2.71249617       0.00027516       0.00000000
Si       2.71458189       2.71309890       0.00141021       0.00000000
Si      -2.71425609      -0.00168190       2.71466000       0.00000000
Si       2.71520091      -0.00151952       2.71479759       0.00000000
