10
Lattice="16.28999089631971 0.0 0.0 0.0 16.28999089631971 0.0 0.0 0.0 34.395419527814205" Properties=species:S:1:pos:R:3:initial_magmoms:R:1 pbc="T T T"
Si       1.06577325       2.08767085       0.49378092       0.00000000
Si       1.50017868      -1.25103700      -1.43611275       0.00000000
Si      -1.38427533       1.35090022      -1.47092094       0.00000000
Si       0.07688880      -1.31730472       2.31133909       0.00000000
Si      -3.40610868       0.23256728       0.71511557       0.00000000
Si       3.29419638      -1.15833061       0.28709873       0.00000000
Si       3.30276492       1.21746883       0.54093707       0.00000000
Si      -2.70120780       2.67225379       0.11574065       0.00000000
Si       2.31089940      -2.36357884       2.16815088       0.00000000
Si      -2.66346387      -0.08709041      -2.92134219       0.00000000
