10
Lattice="16.28999089631971 0.0 0.0 0.0 16.28999089631971 0.0 0.0 0.0 34.395419527814205" Properties=species:S:1:pos:R:3:initial_magmoms:R:1 pbc="T T T"
Si      -1.26486963      -1.95816293       0.19010359       0.00000000
Si       2.34185040      -0.28784104       0.24919495       0.00000000
Si      -0.59277681       0.53051643      -2.24213547       0.00000000
Si      -0.47335482       1.64076138       1.68967593       0.00000000
Si       1.32092352       1.94017158      -2.51121098       0.00000000
Si       2.57847894      -2.59896266      -0.07580755       0.00000000
Si       3.19024989       0.83789244      -1.61263015       0.00000000
Si      -2.60232750       1.73319084      -1.95025577       0.00000000
Si      -3.72690765       0.88047450       0.01915826       0.00000000
Si      -0.57894660      -3.06581777       2.26112175       0.00000000
