10
Lattice="16.28999089631971 0.0 0.0 0.0 16.28999089631971 0.0 0.0 0.0 34.395419527814205" Properties=species:S:1:pos:R:3:initial_magmoms:R:1 pbc="T T T"
Si       1.35681039       1.35654975       1.37342707       0.00000000
Si      -1.35801585      -1.35928647       1.37136334       0.00000000
Si      -1.39945761       1.21249728      -1.48482013       0.00000000
Si       1.26322434      -1.42076493      -1.43704143       0.00000000
Si      -2.37894273      -0.75308670      -2.68242738       0.00000000
Si      -0.46833750      -2.42686791      -2.79627836       0.00000000
Si       2.70021411       2.70280422      -0.00985773       0.00000000
Si      -2.71063971       2.71127502      -0.01677466       0.00000000
Si       2.70550836      -2.72935692      -0.01026360       0.00000000
Si      -0.00115659       2.71194291       2.73122141       0.00000000
