10
Lattice="16.28999089631971 0.0 0.0 0.0 16.28999089631971 0.0 0.0 0.0 34.395419527814205" Properties=species:S:1:pos:R:3:initial_magmoms:R:1 pbc="T T T"
Si       1.35716877       1.35627282      -1.35686566       0.00000000
Si       1.35747828      -1.35755973       1.35714083       0.00000000
Si      -1.35742941       1.35757602       1.35745039       0.00000000
Si      -1.35837423      -1.35788553      -1.35731280       0.00000000
Si      -2.71192499       0.00141723      -2.71493517       0.00000000
Si       0.00052128      -2.71430822       2.71376572       0.00000000
Si      -2.71409645      -0.00040725       2.71445363       0.00000000
Si       2.71476108       0.00037467       2.71386891       0.00000000
Si      -2.71451673      -2.71478714      -0.00003440       0.00000000
Si       2.71515204      -2.71464705      -0.00003440       0.00000000
