10
Lattice="16.28999089631971 0.0 0.0 0.0 16.28999089631971 0.0 0.0 0.0 34.395419527814205" Properties=species:S:1:pos:R:3:initial_magmoms:R:1 pbc="T T T"
Si       1.35624024       1.35858600      -1.35690006       0.00000000
Si       1.35765747      -1.35728280       1.35755357       0.00000000
Si      -1.35754344       1.35762489       1.35779434       0.00000000
Si      -1.35798327      -1.35892809      -1.35665929       0.00000000
Si       0.00097740      -2.71482624      -2.71400649       0.00000000
Si      -0.00039096      -2.71482624       2.71407528       0.00000000
Si      -2.71412577       0.00016290       2.71521033       0.00000000
Si       2.71598283       0.00057015       2.71338737       0.00000000
Si       2.71461447      -2.71490769       0.00000000       0.00000000
Si       0.00071676       2.71539639       2.71414407       0.00000000
