10
Lattice="16.28999089631971 0.0 0.0 0.0 16.28999089631971 0.0 0.0 0.0 34.395419527814205" Properties=species:S:1:pos:R:3:initial_magmoms:R:1 pbc="T T T"
Si      -0.80011593       2.00290437      -0.87054855       0.00000000
Si       0.74285658      -0.08022825       2.20326862       0.00000000
Si       2.09877102      -0.15125265      -1.14994270       0.00000000
Si      -1.74838941      -1.57030713      -0.48734897       0.00000000
Si      -0.08654877      -2.29462569       2.68865705       0.00000000
Si      -0.49264218      -2.68428249      -2.27333213       0.00000000
Si       1.36125756      -1.37958381      -3.02844959       0.00000000
Si       1.03633722       3.43344330      -0.58699256       0.00000000
Si      -1.37349135       1.46909736      -3.12534154       0.00000000
Si      -2.34970218      -2.29017852       1.76844148       0.00000000
