10
Lattice="16.28999089631971 0.0 0.0 0.0 16.28999089631971 0.0 0.0 0.0 34.395419527814205" Properties=species:S:1:pos:R:3:initial_magmoms:R:1 pbc="T T T"
Si      -1.34340372      -1.34625447       1.38328480       0.00000000
Si       1.37140623       1.37068947       1.38118668       0.00000000
Si       1.28923947      -1.39712814      -1.44324981       0.00000000
Si      -1.35659862       1.23155658      -1.59369890       0.00000000
Si       2.12648031       0.43043067      -2.68934957       0.00000000
Si       0.37038573       2.37188916      -2.82872701       0.00000000
Si      -2.70021411      -2.70280422       0.00985773       0.00000000
Si      -2.69663031       2.71272483      -0.01607987       0.00000000
Si       2.73365748      -2.69430084      -0.00414809       0.00000000
Si      -2.70137070       0.00913869       2.74107914       0.00000000
