10
Lattice="16.28999089631971 0.0 0.0 0.0 16.28999089631971 0.0 0.0 0.0 34.395419527814205" Properties=species:S:1:pos:R:3:initial_magmoms:R:1 pbc="T T T"
Si       1.46886930       1.75560588       0.40995923       0.00000000
Si      -0.33497127       0.20092086      -2.31560412       0.00000000
Si       0.86377725      -1.87015716       1.13491190       0.00000000
Si      -1.87097166       0.97852401       1.03801995       0.00000000
Si      -1.75177773      -1.60969635      -2.45198204       0.00000000
Si       1.60129071      -0.64182600       3.01341878       0.00000000
Si      -1.88076195       2.91970557      -0.28039162       0.00000000
Si       3.36030120       1.13301837      -0.79838692       0.00000000
Si      -1.37526696       2.30428566      -2.50563892       0.00000000
Si       0.23874624       3.73355397       0.11749482       0.00000000
