10
Lattice="16.28999089631971 0.0 0.0 0.0 16.28999089631971 0.0 0.0 0.0 34.395419527814205" Properties=species:S:1:pos:R:3:initial_magmoms:R:1 pbc="T T T"
Si      -1.69533288       1.37694483       0.78985686       0.00000000
Si       0.80011593      -2.00290437       0.87054855       0.00000000
Si       1.83645315       1.43053893       0.28355600       0.00000000
Si      -0.57337542      -0.53380701      -2.25479299       0.00000000
Si      -1.09489977       3.34472796      -0.44745026       0.00000000
Si       1.22720715       3.20432445      -1.07950085       0.00000000
Si       3.53465307       0.15876234      -0.66723712       0.00000000
Si       2.89888695      -2.15415702      -0.27939415       0.00000000
Si      -0.94827348      -3.57321150       0.38319958       0.00000000
Si       1.29759624      -1.51233102      -3.29281293       0.00000000
