10
Lattice="16.28999089631971 0.0 0.0 0.0 16.28999089631971 0.0 0.0 0.0 34.395419527814205" Properties=species:S:1:pos:R:3:initial_magmoms:R:1 pbc="T T T"
Si      -0.97085142      -0.19831446      -2.10015109       0.00000000
Si       2.25246717       0.07291404      -0.64113098       0.00000000
Si      -0.20548206       2.42745435       0.39912467       0.00000000
Si      -0.39288222      -2.51198316       0.59861822       0.00000000
Si       0.54460728       1.40919903       2.62065727       0.00000000
Si      -1.35386190      -2.51286282      -1.71499097       0.00000000
Si       3.12849450      -1.55043333       0.74397334       0.00000000
Si       2.30070186      -0.53225946       2.76003471       0.00000000
Si      -2.53746072      -1.30829877       2.34944923       0.00000000
Si      -3.03383331       0.92377332      -2.04862673       0.00000000
