10
Lattice="16.28999089631971 0.0 0.0 0.0 16.28999089631971 0.0 0.0 0.0 34.395419527814205" Properties=species:S:1:pos:R:3:initial_magmoms:R:1 pbc="T T T"
Si      -0.29657574       1.81890882      -1.42266414       0.00000000
Si       1.57351626      -1.46515518      -1.02384903       0.00000000
Si      -1.98974205      -1.33265232       0.14783160       0.00000000
Si       1.06178220       0.47219823       2.10190526       0.00000000
Si      -1.60808364      -1.91423790       2.40028569       0.00000000
Si       0.46134909      -1.49558490       3.33921238       0.00000000
Si      -0.63420228       0.76766625      -3.55487178       0.00000000
Si       3.38388912       0.33179472       1.46985468       0.00000000
Si       1.58330655      -3.40633674       0.29456254       0.00000000
Si       3.69302445      -0.65130678      -0.62596259       0.00000000
