10
Lattice="16.28999089631971 0.0 0.0 0.0 16.28999089631971 0.0 0.0 0.0 34.395419527814205" Properties=species:S:1:pos:R:3:initial_magmoms:R:1 pbc="T T T"
Si       0.82914471       1.98918819      -0.75886657       0.00000000
Si      -1.09840212       0.89762787       1.85088735       0.00000000
Si      -0.07451046      -1.61415004      -1.71058836       0.00000000
Si       1.83330918      -0.86994301       1.24508049       0.00000000
Si      -2.56399713       0.91023633      -1.87517053       0.00000000
Si       2.20348314       2.23684506       1.15444851       0.00000000
Si       1.96775055       1.01978658      -2.54447137       0.00000000
Si      -2.07032868      -2.59849025      -1.05951710       0.00000000
Si       0.44198028       2.48821605       2.74231394       0.00000000
Si      -0.97635744      -0.75514738       3.53316826       0.00000000
