10
Lattice="16.28999089631971 0.0 0.0 0.0 16.28999089631971 0.0 0.0 0.0 34.395419527814205" Properties=species:S:1:pos:R:3:initial_magmoms:R:1 pbc="T T T"
Si       1.21652091      -0.31817628      -1.94932710       0.00000000
Si       1.27443186       1.44868599       1.36584429       0.00000000
Si      -1.39667202      -1.36440967       1.36609194       0.00000000
Si       0.86649768       2.04713172      -2.08962609       0.00000000
Si      -2.58203016       0.89300151      -2.56885774       0.00000000
Si       1.93846113       3.39713289       0.00030956       0.00000000
Si      -0.04105080      -2.64812115       2.88661454       0.00000000
Si      -3.17166300      -2.30105698      -0.06139586       0.00000000
Si       2.65642659       0.08008164       2.89640004       0.00000000
Si      -2.74769946       0.07250679       2.89661329       0.00000000
