10
Lattice="16.28999089631971 0.0 0.0 0.0 16.28999089631971 0.0 0.0 0.0 34.395419527814205" Properties=species:S:1:pos:R:3:initial_magmoms:R:1 pbc="T T T"
Si      -0.15703560       2.00570625      -1.25842592       0.00000000
Si       0.53269929      -1.33887510      -1.91544759       0.00000000
Si       1.06951995      -0.05188365       2.15752269       0.00000000
Si      -2.14782021      -1.11723336       0.51978387       0.00000000
Si      -0.76090590      -2.90264994       1.50961581       0.00000000
Si       0.18862191      -3.34199124      -0.68471000       0.00000000
Si      -1.92381642       2.86322814       0.05943532       0.00000000
Si      -3.34062288       1.05261093      -0.07694260       0.00000000
Si      -0.72506790       0.79215012       3.50995134       0.00000000
Si      -0.94095927       1.44906066      -3.44343056       0.00000000
