10
Lattice="16.28999089631971 0.0 0.0 0.0 16.28999089631971 0.0 0.0 0.0 34.395419527814205" Properties=species:S:1:pos:R:3:initial_magmoms:R:1 pbc="T T T"
Si      -0.84115044       2.03787900      -0.79205816       0.00000000
Si      -1.54308654      -1.80933030      -0.21118799       0.00000000
Si       1.67415588      -0.54646434      -1.65730982       0.00000000
Si       0.93006126       0.16837344       2.24904895       0.00000000
Si       2.59447572      -1.42641756       1.82223595       0.00000000
Si       0.01962945      -3.58114473       0.25720909       0.00000000
Si       3.55887630      -0.76330053      -0.28768345       0.00000000
Si      -3.33767439      -0.96529653       1.14124066       0.00000000
Si      -0.85165749       1.69269390      -3.14339915       0.00000000
Si       1.57247370       1.29049380      -3.23392794       0.00000000
