10
Lattice="16.28999089631971 0.0 0.0 0.0 16.28999089631971 0.0 0.0 0.0 34.395419527814205" Properties=species:S:1:pos:R:3:initial_magmoms:R:1 pbc="T T T"
Si       0.83724084       1.82755881      -1.24609977       0.00000000
Si      -1.05663456      -1.60358760      -1.39920098       0.00000000
Si      -1.28923947       1.39712814       1.44324981       0.00000000
Si       1.44441801      -1.29717270       1.43910172       0.00000000
Si      -2.64583809       2.62868472      -0.15044909       0.00000000
Si       1.66503348       0.80938494      -3.26216113       0.00000000
Si       0.71337168      -3.41620848      -1.45285787       0.00000000
Si       2.69320941       2.65502565       0.07810860       0.00000000
Si       2.74936104      -2.60771949      -0.10798448       0.00000000
Si      -2.72622924      -2.72644101       0.01606611       0.00000000
