10
Lattice="16.28999089631971 0.0 0.0 0.0 16.28999089631971 0.0 0.0 0.0 34.395419527814205" Properties=species:S:1:pos:R:3:initial_magmoms:R:1 pbc="T T T"
Si       1.54087110       1.03293261      -1.40003194       0.00000000
Si      -1.05538023      -1.68541227      -1.30626997       0.00000000
Si      -1.78039926       1.58868225       0.25108670       0.00000000
Si       2.18383740      -0.96562233       1.57073650       0.00000000
Si      -1.90878075       1.39597155       2.69395395       0.00000000
Si       0.17782164       2.30900976      -2.82193938       0.00000000
Si       2.66176971       2.53345338       0.22553089       0.00000000
Si      -2.53693944      -0.40509972      -2.78909173       0.00000000
Si      -1.05547797       3.47807790      -1.24937992       0.00000000
Si       2.88451917      -0.40066884      -2.78754394       0.00000000
