10
Lattice="16.28999089631971 0.0 0.0 0.0 16.28999089631971 0.0 0.0 0.0 34.395419527814205" Properties=species:S:1:pos:R:3:initial_magmoms:R:1 pbc="T T T"
Si      -1.23329961       1.16906814       1.57255946       0.00000000
Si       1.34745993       1.36612827      -1.34720054       0.00000000
Si      -1.36748034      -1.35044100      -1.34424254       0.00000000
Si       1.36304946      -1.27607715       1.42190744       0.00000000
Si       0.43155468       2.16842706       2.83758930       0.00000000
Si      -0.17782164      -2.30900976       2.82193938       0.00000000
Si      -1.95822090      -0.72032751       3.07302608       0.00000000
Si       2.70396081       0.00781920      -2.70516686       0.00000000
Si      -0.00853596      -2.70620883      -2.70551082       0.00000000
Si       2.70669753      -2.70967860       0.03439544       0.00000000
