10
Lattice="16.28999089631971 0.0 0.0 0.0 16.28999089631971 0.0 0.0 0.0 34.395419527814205" Properties=species:S:1:pos:R:3:initial_magmoms:R:1 pbc="T T T"
Si       1.35669636      -1.35322659      -1.36357277       0.00000000
Si      -1.36028016       1.36127385      -1.36260970       0.00000000
Si      -1.34636850      -1.35676152       1.38988528       0.00000000
Si       1.36334268       1.36117611       1.39569811       0.00000000
Si       2.71257822      -2.71230129      -0.00326757       0.00000000
Si       2.71215468       2.71640637       0.00010319       0.00000000
Si      -2.71490769      -2.71420722      -0.00178856       0.00000000
Si      -0.00156384      -2.71164969      -2.72040404       0.00000000
Si       2.71349046       0.00309510      -2.72061041       0.00000000
Si      -2.71741635       0.00394218      -2.72074800       0.00000000
