10
Lattice="16.28999089631971 0.0 0.0 0.0 16.28999089631971 0.0 0.0 0.0 34.395419527814205" Properties=species:S:1:pos:R:3:initial_magmoms:R:1 pbc="T T T"
Si       0.02891475       1.95901911       1.26141832       0.00000000
Si      -1.05394671      -1.52373402       1.42868334       0.00000000
Si      -1.17193518       0.33909264      -2.09368475       0.00000000
Si       2.38498632      -0.57627504      -0.03903882       0.00000000
Si      -1.05145434      -1.95892137      -2.72191744       0.00000000
Si       2.02473297       2.94335932       0.61034706       0.00000000
Si       0.27619695       1.12124070       3.47841072       0.00000000
Si       2.70912474      -0.70033968      -2.38226248       0.00000000
Si      -1.36308204      -0.54063252       3.52450061       0.00000000
Si       3.56876433       1.22031648       0.88447871       0.00000000
