10
Lattice="16.28999089631971 0.0 0.0 0.0 16.28999089631971 0.0 0.0 0.0 34.395419527814205" Properties=species:S:1:pos:R:3:initial_magmoms:R:1 pbc="T T T"
Si       2.31220260      -0.36790965      -0.13620594       0.00000000
Si      -1.43347113      -1.72489923      -0.73104066       0.00000000
Si      -0.32413842       0.12406464       2.34322366       0.00000000
Si      -0.44000919       1.88434575      -1.51732039       0.00000000
Si      -2.70912474       0.70033968       2.38226248       0.00000000
Si      -1.30508964      -1.53218853      -3.17390790       0.00000000
Si       1.08468594       1.35656604      -3.40934468       0.00000000
Si      -0.65202354      -3.76911504       0.54372310       0.00000000
Si       0.85963959       1.92065616       3.26674119       0.00000000
Si       3.60012258       1.60081830       0.31526859       0.00000000
