10
Lattice="16.28999089631971 0.0 0.0 0.0 16.28999089631971 0.0 0.0 0.0 34.395419527814205" Properties=species:S:1:pos:R:3:initial_magmoms:R:1 pbc="T T T"
Si       1.99581822       0.98434021      -0.65107126       0.00000000
Si      -0.02891475      -1.95901911      -1.26141832       0.00000000
Si      -1.76661792       1.59550843       0.03783498       0.00000000
Si       0.24728220      -0.83777841       2.21699240       0.00000000
Si       2.07032868       2.59849025       1.05951710       0.00000000
Si       3.53984958      -0.73870263      -0.37693961       0.00000000
Si      -0.49366845       3.50872658      -0.81565343       0.00000000
Si      -1.39199679      -2.49965163       2.26308229       0.00000000
Si      -1.08286146      -3.48275313       0.16726502       0.00000000
Si      -2.01448656       1.84902318       2.48132135       0.00000000
