10
Lattice="16.28999089631971 0.0 0.0 0.0 16.28999089631971 0.0 0.0 0.0 34.395419527814205" Properties=species:S:1:pos:R:3:initial_magmoms:R:1 pbc="T T T"
Si      -1.12883184      -1.99676304      -0.52714449       0.00000000
Si      -0.38286387       1.29197619      -1.94237922       0.00000000
Si       2.35004427      -0.36551502      -0.18576976       0.00000000
Si       0.12691539       1.99404261       2.57549606       0.00000000
Si       1.82131974      -0.14296104       2.85922403       0.00000000
Si       1.03589739       3.06676096      -1.32319253       0.00000000
Si      -2.67312384       1.70043165      -1.66738768       0.00000000
Si       3.00516291       1.88809245      -0.71779841       0.00000000
Si      -3.58678107       0.35777727       0.51311116       0.00000000
Si      -0.25280451      -3.62011041       0.85795982       0.00000000
