10
Lattice="16.28999089631971 0.0 0.0 0.0 16.28999089631971 0.0 0.0 0.0 34.395419527814205" Properties=species:S:1:pos:R:3:initial_magmoms:R:1 pbc="T T T"
Si      -1.35567009       1.33460712      -1.38107661       0.00000000
Si       1.35331686       1.36172997       1.36848100       0.00000000
Si      -1.36215351      -1.35842799       1.36799947       0.00000000
Si       1.47455029      -1.28020178      -1.40469940       0.00000000
Si       0.14111833       2.19313899      -3.06386799       0.00000000
Si       2.70769841       2.69552259       0.00130015       0.00000000
Si      -2.70322776      -2.72106158       0.00971327       0.00000000
Si       2.71561535      -2.71287863       0.00583003       0.00000000
Si       2.70686762       0.00242721       2.72610337       0.00000000
Si      -0.00731693      -2.71193340       2.72765116       0.00000000
