10
Lattice="16.28999089631971 0.0 0.0 0.0 16.28999089631971 0.0 0.0 0.0 34.395419527814205" Properties=species:S:1:pos:R:3:initial_magmoms:R:1 pbc="T T T"
Si      -1.35677781      -1.35683380       1.35731280       0.00000000
Si       1.35705474      -1.35720847      -1.35707204       0.00000000
Si      -1.35812988       1.35781881      -1.35745039       0.00000000
Si       1.35783666       1.35841339       1.35758797       0.00000000
Si       2.71433482       0.00057973      -2.71280265       0.00000000
Si       2.71424835      -2.71392112       0.00051593       0.00000000
Si      -0.00084708      -2.71374193       2.71479759       0.00000000
Si      -0.00123804      -2.71436095      -2.71424726       0.00000000
Si      -2.71487511      -2.71491481       0.00041275       0.00000000
Si       2.71496910       2.71542904       0.00027516       0.00000000
