10
Lattice="16.28999089631971 0.0 0.0 0.0 16.28999089631971 0.0 0.0 0.0 34.395419527814205" Properties=species:S:1:pos:R:3:initial_magmoms:R:1 pbc="T T T"
Si       1.36512548       1.35223290       1.38189522       0.00000000
Si      -1.35382932      -1.36085031       1.38475005       0.00000000
Si       1.26309306      -1.55014011      -1.35540386       0.00000000
Si      -1.30678380       1.34794863      -1.53839447       0.00000000
Si      -2.69648370       2.68812693       0.00328132       0.00000000
Si      -2.71699281      -2.71085148      -0.00234921       0.00000000
Si       2.72780027       2.70811476      -0.00510772       0.00000000
Si       0.00447144       2.70835911       2.74302592       0.00000000
Si      -2.70787041      -0.00514764       2.74367943       0.00000000
Si       0.00794952      -2.71992501       2.74247559       0.00000000
