10
Lattice="16.28999089631971 0.0 0.0 0.0 16.28999089631971 0.0 0.0 0.0 34.395419527814205" Properties=species:S:1:pos:R:3:initial_magmoms:R:1 pbc="T T T"
Si       1.66441446      -1.59479100      -0.42681300       0.00000000
Si      -1.56512691      -0.90424161       1.54831068       0.00000000
Si       1.36922337       1.46636064       1.35294458       0.00000000
Si      -0.93006126      -0.16837344      -2.24904895       0.00000000
Si       0.46390662      -3.50186130      -0.07852479       0.00000000
Si      -3.53022219       0.09466119       0.77069860       0.00000000
Si       3.49138683       0.87677667       0.53367963       0.00000000
Si       3.26296845      -1.39297419       1.21701381       0.00000000
Si       2.62881504      -0.93167397      -2.53673240       0.00000000
Si      -2.89445607       2.40758055       0.38285563       0.00000000
