10
Lattice="16.28999089631971 0.0 0.0 0.0 16.28999089631971 0.0 0.0 0.0 34.395419527814205" Properties=species:S:1:pos:R:3:initial_magmoms:R:1 pbc="T T T"
Si       1.73234376       1.63795950      -0.27815591       0.00000000
Si       0.71829126      -1.94092092      -1.32061287       0.00000000
Si      -0.88703937      -0.08482203       2.30745240       0.00000000
Si       1.94302233      -1.35860229       1.01187941       0.00000000
Si      -2.18383740       0.96562233      -1.57073650       0.00000000
Si       0.46012734       1.84814937       2.94541900       0.00000000
Si      -0.64296630       1.99855494      -2.97076844       0.00000000
Si       2.05775280      -0.84020562      -2.93936540       0.00000000
Si       0.47793231       3.49907571      -1.34520561       0.00000000
Si       3.50797561       0.57516732      -1.63392092       0.00000000
