10
Lattice="16.28999089631971 0.0 0.0 0.0 16.28999089631971 0.0 0.0 0.0 34.395419527814205" Properties=species:S:1:pos:R:3:initial_magmoms:R:1 pbc="T T T"
Si      -1.36744776      -1.75045824      -0.76265006       0.00000000
Si      -0.67153896       0.31972383       2.29400379       0.00000000
Si      -1.05006969       1.79753634      -1.31449048       0.00000000
Si       2.40497415      -0.50883444      -0.20358660       0.00000000
Si      -3.25887966      -1.12787073       0.44569610       0.00000000
Si       2.39334309      -0.56487204      -2.56655324       0.00000000
Si       0.13370832       3.59412786      -0.39097295       0.00000000
Si      -0.52629732      -3.78833724       0.02940810       0.00000000
Si      -2.49069213      -1.21238325       2.66131268       0.00000000
Si       1.16603820       0.06660981       3.71260926       0.00000000
