10
Lattice="16.28999089631971 0.0 0.0 0.0 16.28999089631971 0.0 0.0 0.0 34.395419527814205" Properties=species:S:1:pos:R:3:initial_magmoms:R:1 pbc="T T T"
Si       0.60694911      -2.22021297      -0.08120763       0.00000000
Si      -1.83757716       0.25311402      -1.41860548       0.00000000
Si       1.93921047       1.21671639      -0.55992335       0.00000000
Si      -0.84075948       0.64614285       2.11982529       0.00000000
Si      -2.33293977       2.48684769      -0.66806261       0.00000000
Si      -1.71246996       2.75030586       1.70174873       0.00000000
Si       0.45439326      -2.91613806       2.19528888       0.00000000
Si       1.35231435       3.44085525      -0.60821454       0.00000000
Si      -1.16603820      -0.06660981      -3.71260926       0.00000000
Si       1.00079244       0.93248847       3.64660442       0.00000000
