10
Lattice="16.28999089631971 0.0 0.0 0.0 16.28999089631971 0.0 0.0 0.0 34.395419527814205" Properties=species:S:1:pos:R:3:initial_magmoms:R:1 pbc="T T T"
Si      -2.32839486       0.41340762       0.14621501       0.00000000
Si       0.90453483       2.11698324       0.84540549       0.00000000
Si       0.39977289      -1.77292215       1.77415113       0.00000000
Si       1.05624360       0.14156010      -2.34762628       0.00000000
Si       2.88771001       1.14730470       1.92380568       0.00000000
Si       1.56188520      -0.35054451       3.31142228       0.00000000
Si       2.00639043      -3.12552972       0.44583368       0.00000000
Si       0.27445392       3.66800301      -0.89751458       0.00000000
Si       1.05248061       2.49842988      -2.76181615       0.00000000
Si      -3.57215265      -1.31989725      -0.86927592       0.00000000
