10
Lattice="16.28999089631971 0.0 0.0 0.0 16.28999089631971 0.0 0.0 0.0 34.395419527814205" Properties=species:S:1:pos:R:3:initial_magmoms:R:1 pbc="T T T"
Si      -1.35736425       1.35604476      -1.35741599       0.00000000
Si      -1.35681039      -1.35721764       1.35714083       0.00000000
Si       1.35829278       1.35715248       1.35717522       0.00000000
Si       1.35997065      -1.35602847      -1.35917016       0.00000000
Si       0.01966203       2.70581250      -2.71649328       0.00000000
Si       2.70841438      -0.01226637      -2.71464968       0.00000000
Si      -2.71363707      -0.00055386       2.71466000       0.00000000
Si      -2.71379997       2.71452091      -0.00130703       0.00000000
Si      -2.71409319      -2.71448415       0.00013758       0.00000000
Si       0.00123804       2.71436095       2.71424726       0.00000000
