10
Lattice="16.28999089631971 0.0 0.0 0.0 16.28999089631971 0.0 0.0 0.0 34.395419527814205" Properties=species:S:1:pos:R:3:initial_magmoms:R:1 pbc="T T T"
Si       1.35593073      -1.35690813       1.35748478       0.00000000
Si       1.35677781       1.35683380      -1.35731280       0.00000000
Si      -1.35809730      -1.35808101      -1.35690006       0.00000000
Si      -1.35943308       1.35523026       1.36381354       0.00000000
Si       2.71243161      -2.71521720      -0.00048154       0.00000000
Si       0.00847080      -2.72303640       2.70468533       0.00000000
Si       2.71383255      -0.00037467      -2.71438484       0.00000000
Si      -0.00127062      -2.71474479      -2.71441924       0.00000000
Si      -2.71489140      -2.71440270       0.00013758       0.00000000
Si      -0.00135207       2.71465261      -2.71476319       0.00000000
