10
Lattice="16.28999089631971 0.0 0.0 0.0 16.28999089631971 0.0 0.0 0.0 34.395419527814205" Properties=species:S:1:pos:R:3:initial_magmoms:R:1 pbc="T T T"
Si      -2.31220260       0.36790965       0.13620594       0.00000000
Si       0.80707176      -1.87043409       1.22736684       0.00000000
Si       1.28791998       1.96872795       0.45147453       0.00000000
Si       0.82487673      -0.21950775      -3.06325778       0.00000000
Si       2.97362940      -1.40867775       0.36304386       0.00000000
Si       2.07928818      -2.08062396      -1.99620808       0.00000000
Si       3.38234550       0.83300544       1.07723075       0.00000000
Si      -2.63634102       0.49197429       2.47942960       0.00000000
Si      -2.75221179       2.25225540      -1.38111445       0.00000000
Si      -0.54009495      -3.80340549       0.58940024       0.00000000
