10
Lattice="16.28999089631971 0.0 0.0 0.0 16.28999089631971 0.0 0.0 0.0 34.395419527814205" Properties=species:S:1:pos:R:3:initial_magmoms:R:1 pbc="T T T"
Si      -1.95550766       0.98134218       0.82463064       0.00000000
Si       0.42995826      -1.97175789       1.25151243       0.00000000
Si       1.58146578       1.81923462       0.14690292       0.00000000
Si      -0.21668958      -1.12467789      -2.13079743       0.00000000
Si      -1.72708928       3.25109304       0.14129646       0.00000000
Si       1.94613372      -2.13628689      -2.29190567       0.00000000
Si       1.60889814      -3.33296658      -0.28410632       0.00000000
Si       0.29633139       3.46737537       1.30582283       0.00000000
Si      -3.55406165       0.77952537      -0.81919616       0.00000000
Si      -1.63228272      -3.23731170       1.51247063       0.00000000
