10
Lattice="16.28999089631971 0.0 0.0 0.0 16.28999089631971 0.0 0.0 0.0 34.395419527814205" Properties=species:S:1:pos:R:3:initial_magmoms:R:1 pbc="T T T"
Si       0.97130754       0.35826597      -2.07445770       0.00000000
Si      -1.96926552       1.17866851      -0.60539412       0.00000000
Si       1.45788984       1.00872797       1.60747083       0.00000000
Si      -0.65511864      -2.25360747       0.53202865       0.00000000
Si      -3.00516291      -1.88809245       0.71779841       0.00000000
Si      -2.68920207       1.91585943       1.53049384       0.00000000
Si       2.48284754      -2.48860701      -0.97070807       0.00000000
Si      -3.38802678      -0.59611626      -1.22458081       0.00000000
Si       3.46045931       0.02938716       1.22193236       0.00000000
Si       0.12290805      -3.42318060      -1.33227292       0.00000000
