10
Lattice="16.28999089631971 0.0 0.0 0.0 16.28999089631971 0.0 0.0 0.0 34.395419527814205" Properties=species:S:1:pos:R:3:initial_magmoms:R:1 pbc="T T T"
Si      -0.50230052       1.75811454       1.56764091       0.00000000
Si       1.28259315       1.17025731      -1.76266305       0.00000000
Si       1.28189268      -2.16476181       0.97769035       0.00000000
Si      -2.60987696      -0.39755745      -1.05494250       0.00000000
Si      -2.85391745       0.76483179       1.63491839       0.00000000
Si       0.37558224      -3.18624255      -1.09508198       0.00000000
Si      -1.91285928      -2.62803312      -0.99612630       0.00000000
Si      -0.64621290       2.07788724      -2.76903919       0.00000000
Si      -1.83638082      -1.05316479       2.99250636       0.00000000
Si       1.06785837       1.43562141       3.36814101       0.00000000
