10
Lattice="16.28999089631971 0.0 0.0 0.0 16.28999089631971 0.0 0.0 0.0 34.395419527814205" Properties=species:S:1:pos:R:3:initial_magmoms:R:1 pbc="T T T"
Si       1.35316143       1.35866745       1.38669339       0.00000000
Si      -1.36267479      -1.35588186       1.38700295       0.00000000
Si      -1.35801096       1.44006858      -1.40135616       0.00000000
Si       1.31118210      -1.49877774      -1.46804548       0.00000000
Si       2.71422351       2.70425403      -0.00916294       0.00000000
Si       2.71063971      -2.71127502       0.01677466       0.00000000
Si      -2.72813595       2.70456354       0.03413747       0.00000000
Si      -2.72780027      -2.70811476       0.00510772       0.00000000
Si       2.70948312       0.00066789       2.74799606       0.00000000
Si      -0.00578295      -2.71379997       2.74816804       0.00000000
