10
Lattice="16.28999089631971 0.0 0.0 0.0 16.28999089631971 0.0 0.0 0.0 34.395419527814205" Properties=species:S:1:pos:R:3:initial_magmoms:R:1 pbc="T T T"
Si       0.88698236       1.84031388      -1.17539533       0.00000000
Si      -2.36463915       0.29284533       0.09276450       0.00000000
Si       0.79321223      -1.66118904      -1.51773313       0.00000000
Si       0.95183936       0.38551914       2.36619981       0.00000000
Si      -2.36840214       2.64971511      -0.32142538       0.00000000
Si       0.93712460      -1.98096174       2.81894697       0.00000000
Si      -0.00846265       3.58428870       0.04013948       0.00000000
Si      -2.91480132      -1.19891142      -1.77274091       0.00000000
Si      -1.20109332      -2.88763056      -1.83754192       0.00000000
Si       3.19731161       1.41460731      -1.33344237       0.00000000
