10
Lattice="16.28999089631971 0.0 0.0 0.0 16.28999089631971 0.0 0.0 0.0 34.395419527814205" Properties=species:S:1:pos:R:3:initial_magmoms:R:1 pbc="T T T"
Si       1.18107387       1.62429219       1.12744809       0.00000000
Si      -2.31032925       0.42570657       0.15804704       0.00000000
Si       0.53853111      -1.87194906       1.34224760       0.00000000
Si       0.83676843       0.24180876      -2.22879004       0.00000000
Si      -1.23266430      -0.17684424      -3.16771672       0.00000000
Si       3.24405576       0.50220441       1.07592372       0.00000000
Si       0.20893554      -0.46561707       3.48910770       0.00000000
Si      -2.61805712       1.29854106      -2.00043872       0.00000000
Si       2.86104528      -1.81234395       1.46108384       0.00000000
Si      -3.19731161      -1.41460731       1.33344237       0.00000000
