10
Lattice="16.28999089631971 0.0 0.0 0.0 16.28999089631971 0.0 0.0 0.0 34.395419527814205" Properties=species:S:1:pos:R:3:initial_magmoms:R:1 pbc="T T T"
Si      -0.89544501       1.74397482       1.21553481       0.00000000
Si      -0.30772787       0.87283449      -2.15848576       0.00000000
Si       2.31032925      -0.42570657      -0.15804704       0.00000000
Si      -0.88698236      -1.84031388       1.17539533       0.00000000
Si      -3.25538450       0.80940123       0.85396995       0.00000000
Si      -0.09377013      -3.50150292      -0.34233780       0.00000000
Si       1.07766495      -0.60255081      -3.32576376       0.00000000
Si      -0.23160959       3.73080096       0.12361721       0.00000000
Si       0.49635630      -2.71660185      -2.52858068       0.00000000
Si       0.47951244       3.15812601      -2.04690696       0.00000000
