10
Lattice="16.28999089631971 0.0 0.0 0.0 16.28999089631971 0.0 0.0 0.0 34.395419527814205" Properties=species:S:1:pos:R:3:initial_magmoms:R:1 pbc="T T T"
Si       0.10595016       2.43154314      -0.21455875       0.00000000
Si       1.46851092      -0.14216283       2.03641635       0.00000000
Si      -2.45440778      -0.56347110       0.21053448       0.00000000
Si       0.32959557      -1.40633199      -2.14686010       0.00000000
Si       0.97213833       2.08990926      -2.36165962       0.00000000
Si      -0.20893554       0.46561707      -3.48910770       0.00000000
Si       2.65210974      -1.34672688      -2.02802386       0.00000000
Si      -2.17443807       2.88958536      -0.02070605       0.00000000
Si       3.61308942      -1.34584722       0.28558533       0.00000000
Si       0.08052147      -1.28686113       3.66138899       0.00000000
