10
Lattice="16.28999089631971 0.0 0.0 0.0 16.28999089631971 0.0 0.0 0.0 34.395419527814205" Properties=species:S:1:pos:R:3:initial_magmoms:R:1 pbc="T T T"
Si       1.34863281       1.35685341       1.36168790       0.00000000
Si      -1.36649154      -1.35262386       1.35979615       0.00000000
Si      -1.24106505       1.43267685      -1.41052943       0.00000000
Si       1.30378644      -1.33607322      -1.47170859       0.00000000
Si      -0.67098510      -2.13167682      -2.69408193       0.00000000
Si      -2.38517203      -0.37756962      -2.54690932       0.00000000
Si       0.51774507       2.30937533      -2.91835809       0.00000000
Si       2.30138604       0.33916824      -2.97930680       0.00000000
Si       2.70640431       0.00280967       2.71999818       0.00000000
Si      -2.71561535       2.71287863      -0.00583003       0.00000000
