10
Lattice="16.28999089631971 0.0 0.0 0.0 16.28999089631971 0.0 0.0 0.0 34.395419527814205" Properties=species:S:1:pos:R:3:initial_magmoms:R:1 pbc="T T T"
Si      -1.35644074       1.35356909       1.36202498       0.00000000
Si       1.36649154       1.35262386      -1.35979615       0.00000000
Si       1.35743430      -1.36171368       1.36040839       0.00000000
Si      -1.36359921      -1.37363796      -1.35406931       0.00000000
Si      -2.71127732       2.70707450       0.00237329       0.00000000
Si       2.71512435       2.70947727       0.00189175       0.00000000
Si       0.00160131       2.71102808       2.71775559       0.00000000
Si      -2.71204295      -2.71740006       0.00141021       0.00000000
Si       0.00652577      -2.63813292      -2.78956295       0.00000000
Si      -2.71372082      -0.00421911       2.71775559       0.00000000
