10
Lattice="16.28999089631971 0.0 0.0 0.0 16.28999089631971 0.0 0.0 0.0 34.36671206372826" Properties=species:S:1:pos:R:3:initial_magmoms:R:1 pbc="T T T"
Si       1.46803851      -1.18850537       1.34782883       0.00000000
Si      -1.34438112      -1.36372965      -1.34758827       0.00000000
Si      -1.21469643       1.33804431       1.49247841       0.00000000
Si       1.37137365       1.35537687      -1.34793193       0.00000000
Si       0.64749492       2.25562743       2.80755574       0.00000000
Si       2.35545255       0.65143710       2.77425438       0.00000000
Si      -2.69358408       2.70598077       0.04024344       0.00000000
Si      -2.70348840      -0.00380372      -2.70555529       0.00000000
Si       0.01190799       2.71125873      -2.70534909       0.00000000
Si       0.01154961      -2.71686968      -2.70552092       0.00000000
