10
Lattice="16.28999089631971 0.0 0.0 0.0 16.28999089631971 0.0 0.0 0.0 34.36671206372826" Properties=species:S:1:pos:R:3:initial_magmoms:R:1 pbc="T T T"
Si       0.98917767      -1.91824524       0.88518390       0.00000000
Si      -1.42475598       0.53261784       1.84037283       0.00000000
Si      -1.16603820       0.06478533      -2.08537325       0.00000000
Si       1.92829617       1.43980794      -0.22881370       0.00000000
Si       0.66090159       0.89738352      -3.29209229       0.00000000
Si      -0.28403244       2.38931946       2.71383767       0.00000000
Si       1.98275364       2.39445081       1.92213128       0.00000000
Si       1.32097239       2.77555536      -2.02746531       0.00000000
Si      -0.60714459      -3.62145338       0.70444926       0.00000000
Si      -2.11403475      -2.15158320      -2.49945800       0.00000000
