10
Lattice="16.28999089631971 0.0 0.0 0.0 16.28999089631971 0.0 0.0 0.0 34.36671206372826" Properties=species:S:1:pos:R:3:initial_magmoms:R:1 pbc="T T T"
Si      -1.35630540      -1.35703845      -1.35707348       0.00000000
Si       1.35946566      -1.35588186       1.35741715       0.00000000
Si      -1.35547461       1.35884664       1.35848252       0.00000000
Si       1.35806472       1.35829278      -1.35717658       0.00000000
Si      -0.01190799      -2.71125873       2.70534909       0.00000000
Si       2.71479366      -2.71377553      -0.00030930       0.00000000
Si      -2.71428867       0.00154755      -2.71435317       0.00000000
Si       0.00065160      -2.71421699      -2.71483430       0.00000000
Si      -0.00070047       2.71599912      -2.71366583       0.00000000
Si       2.71445157       2.71533123       0.00037803       0.00000000
