10
Lattice="16.28999089631971 0.0 0.0 0.0 16.28999089631971 0.0 0.0 0.0 34.36671206372826" Properties=species:S:1:pos:R:3:initial_magmoms:R:1 pbc="T T T"
Si       0.78216435       1.95476742       0.93752443       0.00000000
Si      -0.70532442       1.40344866      -1.87422406       0.00000000
Si      -2.14527897      -0.56047374       1.20799060       0.00000000
Si       1.53163467      -1.42679223       1.57753607       0.00000000
Si       2.53851957      -1.34604270      -1.79923585       0.00000000
Si      -1.04684427       3.35026656       0.60719141       0.00000000
Si      -2.66465304       2.33732178      -0.85353214       0.00000000
Si      -1.83044214      -2.91827205       1.25923140       0.00000000
Si       0.39338721      -3.60474894       0.58725870       0.00000000
Si       1.02491793       1.61207469       3.26439270       0.00000000
