10
Lattice="16.28999089631971 0.0 0.0 0.0 16.28999089631971 0.0 0.0 0.0 34.36671206372826" Properties=species:S:1:pos:R:3:initial_magmoms:R:1 pbc="T T T"
Si       0.89244765       2.11001112      -0.46164830       0.00000000
Si       1.56670704      -1.42141653       1.02481593       0.00000000
Si      -0.05445747      -0.95464287      -2.15094498       0.00000000
Si      -2.26678608      -0.00513135       0.79170639       0.00000000
Si      -1.98275364      -2.39445081      -1.92213128       0.00000000
Si      -0.81363663       3.22934589      -1.70517411       0.00000000
Si       0.32514840      -2.85045678       2.43467671       0.00000000
Si       1.15944075       3.25122336       1.57739860       0.00000000
Si       3.23983665      -1.95833493      -0.72599720       0.00000000
Si       2.27028843      -1.34930070      -2.83415559       0.00000000
