10
Lattice="16.28999089631971 0.0 0.0 0.0 16.28999089631971 0.0 0.0 0.0 34.36671206372826" Properties=species:S:1:pos:R:3:initial_magmoms:R:1 pbc="T T T"
Si      -1.35677781      -1.35071793       1.35528641       0.00000000
Si       1.35255870      -1.35871632      -1.35717658       0.00000000
Si      -1.36045935       1.35628911      -1.35635178       0.00000000
Si       1.34671059       1.34957763       1.40137220       0.00000000
Si       2.71171485      -0.00016290      -2.71352837       0.00000000
Si       2.71296918      -2.71251306      -0.00068733       0.00000000
Si       2.71207323       2.71497285       0.00845422       0.00000000
Si      -0.00337203      -2.71397916      -2.71455937       0.00000000
Si      -0.00325800       2.71516833      -2.71373457       0.00000000
Si      -2.71632492       2.71480995       0.00250877       0.00000000
