10
Lattice="16.28999089631971 0.0 0.0 0.0 16.28999089631971 0.0 0.0 0.0 34.36671206372826" Properties=species:S:1:pos:R:3:initial_magmoms:R:1 pbc="T T T"
Si      -2.35608786       0.18915948      -0.09694855       0.00000000
Si       0.15307713      -0.95485464       2.20517568       0.00000000
Si       0.59979780       2.30614272      -0.35906361       0.00000000
Si       0.62605728      -1.46474793      -1.88996402       0.00000000
Si      -1.31888727      -0.58153671      -3.24201996       0.00000000
Si       1.66392576      -2.67107130       1.64083958       0.00000000
Si      -2.18483109      -1.59195654       2.50798095       0.00000000
Si       2.56096719       2.53148229       0.94944968       0.00000000
Si      -2.98427750      -1.65436353      -1.53248128       0.00000000
Si       3.79625418       0.70780050       0.16643808       0.00000000
