10
Lattice="16.28999089631971 0.0 0.0 0.0 16.28999089631971 0.0 0.0 0.0 34.36671206372826" Properties=species:S:1:pos:R:3:initial_magmoms:R:1 pbc="T T T"
Si      -1.79957259      -1.06302024       1.18137498       0.00000000
Si       0.91461834       1.76013450       1.35632570       0.00000000
Si       1.74568527      -1.78380387      -0.21114920       0.00000000
Si      -0.34507107      -2.17064250       2.72017631       0.00000000
Si       2.37669471       0.54794673       2.73236962       0.00000000
Si       3.48874785      -0.95330709       1.29756203       0.00000000
Si       1.00918179      -3.50130744       1.28107975       0.00000000
Si      -1.90487115      -0.31829031      -3.42330447       0.00000000
Si      -2.65839768      -2.98504476      -0.17258972       0.00000000
Si       1.78522110       3.67831458       0.16682268       0.00000000
