10
Lattice="16.28999089631971 0.0 0.0 0.0 16.28999089631971 0.0 0.0 0.0 34.36671206372826" Properties=species:S:1:pos:R:3:initial_magmoms:R:1 pbc="T T T"
Si       0.47593841       1.25411823      -1.89470663       0.00000000
Si      -0.66625678      -2.25187000      -0.37370384       0.00000000
Si      -1.97905159       0.98599135       0.94628795       0.00000000
Si       1.93656660      -0.25344015       1.46257935       0.00000000
Si      -0.96596020      -2.48069563       1.91628894       0.00000000
Si      -2.41274026      -0.68827435       2.64080836       0.00000000
Si       1.18400607      -2.17801114       2.74521449       0.00000000
Si       0.27875448       3.48177736      -1.22658301       0.00000000
Si      -3.54061099       0.78367443      -0.79768620       0.00000000
Si       2.45973624       0.76906882      -3.01097243       0.00000000
