10
Lattice="16.28999089631971 0.0 0.0 0.0 16.28999089631971 0.0 0.0 0.0 34.36671206372826" Properties=species:S:1:pos:R:3:initial_magmoms:R:1 pbc="T T T"
Si      -0.44800758       1.97127149      -1.23916123       0.00000000
Si       1.65833829       0.23511357       1.74668912       0.00000000
Si      -2.34773109      -0.36066060       0.51718494       0.00000000
Si       1.47668850      -1.55418003      -1.28844312       0.00000000
Si       1.86820236       1.99067614      -1.68207966       0.00000000
Si       1.13244822       0.04997772      -3.07513511       0.00000000
Si       3.00198636       1.63079762       0.34569495       0.00000000
Si      -1.52927262       3.13238522       0.62836131       0.00000000
Si       0.40573503      -3.59435592      -0.39188384       0.00000000
Si       0.45869382       1.49638311       3.35017206       0.00000000
