10
Lattice="16.28999089631971 0.0 0.0 0.0 16.28999089631971 0.0 0.0 0.0 34.36671206372826" Properties=species:S:1:pos:R:3:initial_magmoms:R:1 pbc="T T T"
Si       1.70523720      -0.25581816       1.61265886       0.00000000
Si      -2.18043279      -0.28372293       0.91467055       0.00000000
Si       0.74044566      -1.94627707      -1.23538089       0.00000000
Si      -0.85146201       1.44458091      -2.02409737       0.00000000
Si       2.09639268      -0.60053085      -2.89134184       0.00000000
Si      -3.47157819      -0.68471757      -1.09282769       0.00000000
Si       2.70176166       2.44563399      -0.80899285       0.00000000
Si       3.54796200      -1.20506904       0.44738611       0.00000000
Si      -0.93954204      -3.56082200      -1.20097979       0.00000000
Si      -2.24950239      -2.16439854       2.31803602       0.00000000
