10
Lattice="16.28999089631971 0.0 0.0 0.0 16.28999089631971 0.0 0.0 0.0 34.36671206372826" Properties=species:S:1:pos:R:3:initial_magmoms:R:1 pbc="T T T"
Si      -1.05073758      -1.52948506       1.40897554       0.00000000
Si       0.88764210      -0.34696138      -2.16720044       0.00000000
Si       1.78887006       1.18510727       1.22363575       0.00000000
Si      -1.45634229      -0.71663035      -2.17520789       0.00000000
Si      -2.35164069      -0.16156389       2.74377938       0.00000000
Si       0.37712979       2.49741013       2.73208094       0.00000000
Si       2.10290868      -2.34323572      -1.99206758       0.00000000
Si      -3.14191746       1.74644113       1.36752238       0.00000000
Si      -2.92555368      -2.50434382       0.17672030       0.00000000
Si       2.56321521       3.07106248      -0.00292117       0.00000000
