10
Lattice="16.28999089631971 0.0 0.0 0.0 16.28999089631971 0.0 0.0 0.0 34.36671206372826" Properties=species:S:1:pos:R:3:initial_magmoms:R:1 pbc="T T T"
Si       1.33924977       1.34993601      -1.38053909       0.00000000
Si       1.35288450      -1.35998694       1.35982282       0.00000000
Si      -1.36391283       1.35609363       1.35930732       0.00000000
Si      -1.36435266      -1.35641943      -1.37169309       0.00000000
Si      -0.24381243       2.56785786      -2.78834818       0.00000000
Si       2.58031971      -0.14946075      -2.78633772       0.00000000
Si       2.70956457      -2.71278999       0.00329921       0.00000000
Si       2.71111212      -0.00127062       2.71782421       0.00000000
Si       2.71604799       2.71334385      -0.00051550       0.00000000
Si      -0.00446346       2.71427238       2.71723997       0.00000000
