10
Lattice="16.28999089631971 0.0 0.0 0.0 16.28999089631971 0.0 0.0 0.0 34.36671206372826" Properties=species:S:1:pos:R:3:initial_magmoms:R:1 pbc="T T T"
Si       1.29780801      -1.34079732      -1.44687375       0.00000000
Si      -0.79454475      -1.79673813       1.34387666       0.00000000
Si      -1.43123940       1.35987291      -1.43800714       0.00000000
Si       1.70333127       1.01159271       1.44989803       0.00000000
Si       2.56179798       2.58800859      -0.11787789       0.00000000
Si       0.91341288      -3.40092846       1.31057530       0.00000000
Si      -2.65673610      -2.71432125       0.02879932       0.00000000
Si       3.35318247      -0.89494002       1.54918351       0.00000000
Si       2.73390183      -2.64867255      -0.00178707       0.00000000
Si       2.64160269       0.01399311      -2.81178285       0.00000000
