10
Lattice="16.28999089631971 0.0 0.0 0.0 16.28999089631971 0.0 0.0 0.0 34.36671206372826" Properties=species:S:1:pos:R:3:initial_magmoms:R:1 pbc="T T T"
Si       1.78878861       0.02337615       1.50481606       0.00000000
Si      -0.61928064      -1.75373253      -1.55097058       0.00000000
Si      -1.64985120       1.90653273      -0.09928549       0.00000000
Si       2.00626011       0.96071904      -1.59685017       0.00000000
Si      -0.42235083      -0.11227068       2.91313034       0.00000000
Si      -2.43976959      -2.50598844      -0.23860822       0.00000000
Si      -2.05537446      -0.44585730      -2.99605727       0.00000000
Si      -3.35318247       0.89494002      -1.54918351       0.00000000
Si       0.66002193       2.27367675      -3.01245020       0.00000000
Si       2.52550386      -2.15738244       2.04588588       0.00000000
