10
Lattice="16.28999089631971 0.0 0.0 0.0 16.28999089631971 0.0 0.0 0.0 34.36671206372826" Properties=species:S:1:pos:R:3:initial_magmoms:R:1 pbc="T T T"
Si      -0.08703747      -1.14544764      -2.02564387       0.00000000
Si       0.46224504       2.19830292      -0.68441345       0.00000000
Si      -2.14210242       0.13207932       0.96835139       0.00000000
Si       1.95023880      -0.61190127       1.24730614       0.00000000
Si       1.67503554      -0.02640609      -3.17771981       0.00000000
Si      -0.76426164      -3.32723250      -1.40415591       0.00000000
Si       2.73584034       2.56318263      -0.08306439       0.00000000
Si      -1.87510932       1.27329156       3.00739829       0.00000000
Si       3.73886451       0.45014157       0.06632779       0.00000000
Si       1.75979241       0.56513268       3.30827902       0.00000000
