10
Lattice="16.28999089631971 0.0 0.0 0.0 16.28999089631971 0.0 0.0 0.0 34.36671206372826" Properties=species:S:1:pos:R:3:initial_magmoms:R:1 pbc="T T T"
Si      -1.56670704       1.42141653      -1.02481593       0.00000000
Si      -1.24155864      -1.42904025       1.40986078       0.00000000
Si       1.11835737       1.04414013       1.81779388       0.00000000
Si       1.67312961      -0.53691840      -1.75081312       0.00000000
Si       3.18803445      -0.01487277       1.51718809       0.00000000
Si      -1.62116451       0.46677366      -3.17576090       0.00000000
Si       0.40604454      -2.10940839       2.93289121       0.00000000
Si       3.63040569       0.43474752      -0.77706616       0.00000000
Si       2.47624290      -2.27607138       1.76555645       0.00000000
Si      -1.98511569      -3.28295954       0.20334795       0.00000000
