10
Lattice="16.28999089631971 0.0 0.0 0.0 16.28999089631971 0.0 0.0 0.0 34.36671206372826" Properties=species:S:1:pos:R:3:initial_magmoms:R:1 pbc="T T T"
Si      -0.52122608      -2.23684084       0.41590618       0.00000000
Si       1.98204991      -0.48233387      -1.18396826       0.00000000
Si       0.85674486       0.34553534       2.23633053       0.00000000
Si      -0.77438817       1.78790406      -1.51598525       0.00000000
Si       2.81784094       1.14158202       1.26286985       0.00000000
Si       1.10773303      -0.60166626      -3.34690722       0.00000000
Si       2.89319848       1.91765391      -0.94326367       0.00000000
Si       1.62037933      -3.26188909       1.06712004       0.00000000
Si      -0.81871326       0.71879136      -3.68889057       0.00000000
Si      -2.04245064      -2.62623700       2.21666933       0.00000000
