10
Lattice="16.28999089631971 0.0 0.0 0.0 16.28999089631971 0.0 0.0 0.0 34.36671206372826" Properties=species:S:1:pos:R:3:initial_magmoms:R:1 pbc="T T T"
Si       1.88649603       1.07044848      -0.71544661       0.00000000
Si      -0.78216435      -1.95476742      -0.93752443       0.00000000
Si      -1.82900862       1.39549914      -0.33033302       0.00000000
Si       0.24275358      -0.34269273       2.32686827       0.00000000
Si      -1.48748877      -0.55131876      -2.81174849       0.00000000
Si       1.41011127       3.18477645      -0.01470896       0.00000000
Si       0.74947032      -3.38155965       0.64001164       0.00000000
Si      -0.99253341       1.48098906       3.10987988       0.00000000
Si      -2.95370280       1.25564949       1.80136659       0.00000000
Si       3.61460439      -0.52634619      -0.63798400       0.00000000
