10
Lattice="16.28999089631971 0.0 0.0 0.0 16.28999089631971 0.0 0.0 0.0 34.36671206372826" Properties=species:S:1:pos:R:3:initial_magmoms:R:1 pbc="T T T"
Si      -0.88712082      -1.97542314       1.04660443       0.00000000
Si       1.76647131       0.84893706       1.39673269       0.00000000
Si       1.31652522      -1.29678174      -1.59561297       0.00000000
Si      -1.38776139       1.41317379      -1.59392900       0.00000000
Si       2.51804304       2.77186256       0.00883225       0.00000000
Si       2.76957693      -2.52864783      -0.05849218       0.00000000
Si       0.87666264       0.41368455       3.71982063       0.00000000
Si      -2.66124843       2.94337887      -0.28716841       0.00000000
Si      -0.04267980      -2.65688271      -2.97602146       0.00000000
Si      -2.80911276      -2.84687298      -0.09388991       0.00000000
