10
Lattice="16.28999089631971 0.0 0.0 0.0 16.28999089631971 0.0 0.0 0.0 34.36671206372826" Properties=species:S:1:pos:R:3:initial_magmoms:R:1 pbc="T T T"
Si      -0.62097480      -2.19152628       0.35786077       0.00000000
Si       2.23870212       0.14286330       0.65176506       0.00000000
Si       0.13250286       0.31623777      -2.34075243       0.00000000
Si      -1.17745749       1.71266122       1.17826338       0.00000000
Si      -1.11382875      -2.05614009       2.65606719       0.00000000
Si       1.81249056       1.93078269      -2.37515353       0.00000000
Si      -2.29198671      -2.51854803      -1.24397257       0.00000000
Si       2.20178898       2.00715673       2.10303775       0.00000000
Si      -3.33967806      -0.42376806      -1.63128563       0.00000000
Si      -1.99602999       0.97191599      -3.03227980       0.00000000
