10
Lattice="16.28999089631971 0.0 0.0 0.0 16.28999089631971 0.0 0.0 0.0 34.36671206372826" Properties=species:S:1:pos:R:3:initial_magmoms:R:1 pbc="T T T"
Si       0.77434515       1.88595520      -1.22655693       0.00000000
Si       1.30748427      -1.38653379       1.48464279       0.00000000
Si      -1.41174027       1.31230285       1.50844519       0.00000000
Si      -1.78887006      -1.18510727      -1.22363575       0.00000000
Si       2.56393197       2.67129610       0.11991584       0.00000000
Si      -1.32395346       3.31359451      -1.20122865       0.00000000
Si      -0.90122796      -1.53206865      -3.39083619       0.00000000
Si       2.52107298      -2.91670236       0.03760408       0.00000000
Si      -3.07817469       2.38087798       0.18642233       0.00000000
Si       2.66111811      -0.03256371       2.87017880       0.00000000
