10
Lattice="16.28999089631971 0.0 0.0 0.0 16.28999089631971 0.0 0.0 0.0 34.36671206372826" Properties=species:S:1:pos:R:3:initial_magmoms:R:1 pbc="T T T"
Si       1.35518953      -1.35437818       1.36136933       0.00000000
Si      -1.36168110       1.36089592       1.36054452       0.00000000
Si      -1.35363384      -1.35397008      -1.38553601       0.00000000
Si       1.35533582       1.36677661      -1.37257975       0.00000000
Si      -2.71673217      -2.71107369      -0.00103100       0.00000000
Si       2.71553227      -2.71509732       0.00178707       0.00000000
Si      -0.00226431      -2.71216512       2.71940508       0.00000000
Si       2.71272061       0.00241418       2.71899268       0.00000000
Si       2.71129850       2.72166478       0.00855732       0.00000000
Si      -2.71767699       0.00197598       2.71978311       0.00000000
