10
Lattice="16.28999089631971 0.0 0.0 0.0 16.28999089631971 0.0 0.0 0.0 34.36671206372826" Properties=species:S:1:pos:R:3:initial_magmoms:R:1 pbc="T T T"
Si       1.35809730      -1.35663120      -1.35655798       0.00000000
Si      -1.35713456       1.35785295      -1.35679855       0.00000000
Si      -1.35856808      -1.35658233       1.35731405       0.00000000
Si       1.35726651       1.35757602       1.35796702       0.00000000
Si      -2.71423390       0.00083079       2.71057283       0.00000000
Si       2.71469592      -0.00179190      -2.71280667       0.00000000
Si       0.00057015      -2.71337643      -2.71479994       0.00000000
Si      -2.71522657      -0.00009774      -2.71352837       0.00000000
Si      -2.71425814      -2.71474479       0.00017183       0.00000000
Si      -2.71466758       2.71516833       0.00024057       0.00000000
