10
Lattice="16.28999089631971 0.0 0.0 0.0 16.28999089631971 0.0 0.0 0.0 34.36671206372826" Properties=species:S:1:pos:R:3:initial_magmoms:R:1 pbc="T T T"
Si      -1.56155940      -0.20231691      -1.74397415       0.00000000
Si       1.97905159      -0.98599135      -0.94628795       0.00000000
Si      -0.43368867      -1.67426569       1.69452042       0.00000000
Si      -0.47680830       2.42443581       0.00879788       0.00000000
Si       1.16936136       3.24144447       1.40996388       0.00000000
Si       1.31279481      -3.23786134      -1.31999178       0.00000000
Si       1.01309139      -3.46668697       0.97000099       0.00000000
Si       2.45499001       0.26812688      -2.84099457       0.00000000
Si      -0.98606628       1.41176796      -3.37412568       0.00000000
Si      -3.70947735       0.20982497      -0.81122669       0.00000000
