10
Lattice="16.28999089631971 0.0 0.0 0.0 16.28999089631971 0.0 0.0 0.0 34.36671206372826" Properties=species:S:1:pos:R:3:initial_magmoms:R:1 pbc="T T T"
Si       2.11708098      -1.15219170      -0.28507204       0.00000000
Si       1.01555118       2.20423248       0.19080409       0.00000000
Si      -0.89770932      -0.76367520       2.18342154       0.00000000
Si      -1.24144461       1.35495333      -2.24026411       0.00000000
Si      -2.93519736       0.52286013      -0.11904636       0.00000000
Si       1.76998995       1.88053389       2.40210087       0.00000000
Si       0.89187750       0.02166570       3.52989430       0.00000000
Si      -2.99600793       0.66396411       2.20874982       0.00000000
Si      -2.51476875       2.72554506      -0.75287198       0.00000000
Si       2.07275589      -2.22130440      -2.45797735       0.00000000
