10
Lattice="16.28999089631971 0.0 0.0 0.0 16.28999089631971 0.0 0.0 0.0 34.36671206372826" Properties=species:S:1:pos:R:3:initial_magmoms:R:1 pbc="T T T"
Si       1.35737835       1.35646830      -1.35655798       0.00000000
Si      -1.35726651       1.35658233       1.35717658       0.00000000
Si       1.35834679      -1.35817875       1.35714222       0.00000000
Si      -1.35879777      -1.35788553      -1.35879182       0.00000000
Si       2.71418183       0.00288333      -2.71077903       0.00000000
Si      -2.71420722       2.71357191       0.00048113       0.00000000
Si       0.00076563       2.71283886       2.71517797       0.00000000
Si       2.71403685      -0.00001629       2.71428444       0.00000000
Si       0.00043983      -2.71604799       2.71363147       0.00000000
Si      -2.71575477       0.00205254      -2.71404387       0.00000000
