10
Lattice="16.28999089631971 0.0 0.0 0.0 16.28999089631971 0.0 0.0 0.0 34.36671206372826" Properties=species:S:1:pos:R:3:initial_magmoms:R:1 pbc="T T T"
Si      -1.76524956      -0.58376844      -1.70933248       0.00000000
Si       0.71249202       1.81672596      -1.64523853       0.00000000
Si       1.82934812      -1.74498480      -0.50350698       0.00000000
Si      -1.98272106      -1.52111133       1.39233375       0.00000000
Si       0.27111447       1.09226079       2.63809339       0.00000000
Si      -0.42116166      -1.99547613      -3.10768041       0.00000000
Si       2.63538710       2.74975200      -0.63660933       0.00000000
Si       2.28413071       0.73189341      -3.11651266       0.00000000
Si       0.89270829      -3.41684379      -1.75194723       0.00000000
Si       3.45993803      -0.74450187      -1.77256727       0.00000000
