10
Lattice="16.28999089631971 0.0 0.0 0.0 16.28999089631971 0.0 0.0 0.0 34.36671206372826" Properties=species:S:1:pos:R:3:initial_magmoms:R:1 pbc="T T T"
Si      -0.82438803      -1.86160491       1.19634028       0.00000000
Si      -1.79810649       0.91232145      -1.23101631       0.00000000
Si       1.86113250      -0.52566201      -1.36590573       0.00000000
Si       0.89023221       1.40141241       1.69342068       0.00000000
Si      -2.09771217      -0.49101318       2.68373241       0.00000000
Si       3.56448888      -0.26883387       0.21211147       0.00000000
Si      -1.83770748      -3.06703233      -0.56729163       0.00000000
Si      -1.60766010      -0.26471250      -3.29198919       0.00000000
Si      -0.35631117       0.67337973       3.67761828       0.00000000
Si      -3.88552338       0.35471475      -0.27208141       0.00000000
