10
Lattice="16.28999089631971 0.0 0.0 0.0 16.28999089631971 0.0 0.0 0.0 34.36671206372826" Properties=species:S:1:pos:R:3:initial_magmoms:R:1 pbc="T T T"
Si       1.34469063       1.34030862      -1.37850458       0.00000000
Si      -1.35612621       1.35340578       1.35827632       0.00000000
Si       1.35579051      -1.36368477       1.35810449       0.00000000
Si      -1.35812988      -1.37362167      -1.38093431       0.00000000
Si      -0.13769937       2.53891053      -2.83652690       0.00000000
Si       2.71787803       2.70795186      -0.00216510       0.00000000
Si       0.00008145       2.71088406       2.71545290       0.00000000
Si      -2.71438641       2.71197549      -0.00498318       0.00000000
Si       2.71408246      -0.00340461       2.71504050       0.00000000
Si      -2.70980892      -2.71997388      -0.00247440       0.00000000
