10
Lattice="16.28999089631971 0.0 0.0 0.0 16.28999089631971 0.0 0.0 0.0 34.36671206372826" Properties=species:S:1:pos:R:3:initial_magmoms:R:1 pbc="T T T"
Si      -1.35557235      -1.35602847       1.35721095       0.00000000
Si      -1.35063648       1.35858600      -1.36112876       0.00000000
Si       1.35767376      -1.35529542      -1.36226286       0.00000000
Si       1.35902583       1.35988920       1.35666108       0.00000000
Si      -0.01413972      -2.71446786      -2.71110208       0.00000000
Si       0.00136836      -2.71301805       2.71390640       0.00000000
Si      -2.71407690       0.00254124       2.71387203       0.00000000
Si      -2.71379997      -2.71474479      -0.00079043       0.00000000
Si       2.71601322      -2.71313208       0.00017183       0.00000000
Si       2.71496295       2.71487511      -0.00054987       0.00000000
