10
Lattice="16.28999089631971 0.0 0.0 0.0 16.28999089631971 0.0 0.0 0.0 34.36671206372826" Properties=species:S:1:pos:R:3:initial_magmoms:R:1 pbc="T T T"
Si      -1.96696863       0.93182058      -0.78775421       0.00000000
Si      -0.26401203       0.34507107       2.36247221       0.00000000
Si       0.08879679      -2.25564372      -1.02845880       0.00000000
Si       2.08969164       1.43718525      -0.00666715       0.00000000
Si       3.02036867      -0.54638289       0.92192193       0.00000000
Si       0.90292572       2.72321559       1.70589581       0.00000000
Si       2.39217903      -2.38990590      -0.51361080       0.00000000
Si       1.98618336      -0.31258881       3.06523750       0.00000000
Si      -1.67174496      -1.58128659       2.89883378       0.00000000
Si       0.92793250       3.25145142      -1.76438798       0.00000000
