10
Lattice="16.28999089631971 0.0 0.0 0.0 16.28999089631971 0.0 0.0 0.0 34.36671206372826" Properties=species:S:1:pos:R:3:initial_magmoms:R:1 pbc="T T T"
Si       0.25933680      -2.30410647       0.71417504       0.00000000
Si       1.50588018      -1.57607379      -1.27002255       0.00000000
Si      -2.52156168      -0.03442077       0.14763948       0.00000000
Si       1.65876183       1.48305789       1.22074066       0.00000000
Si      -0.18248058       1.13511978      -2.28263829       0.00000000
Si      -1.35586557       2.86493859      -1.22946981       0.00000000
Si      -2.48818347       0.49404312       2.52478628       0.00000000
Si      -1.48206420      -3.46849938      -0.27971083       0.00000000
Si       1.99655127       1.90189008      -2.76531903       0.00000000
Si      -0.32531130       3.91797306       0.66743629       0.00000000
