10
Lattice="16.28999089631971 0.0 0.0 0.0 16.28999089631971 0.0 0.0 0.0 34.36671206372826" Properties=species:S:1:pos:R:3:initial_magmoms:R:1 pbc="T T T"
Si      -1.35628911      -1.35588186      -1.35762335       0.00000000
Si      -1.35812988       1.35933534       1.35569882       0.00000000
Si       1.35913139       1.35826020      -1.35748589       0.00000000
Si       1.36132285      -1.35516510       1.35968536       0.00000000
Si      -2.71063971       2.71761183      -0.00037803       0.00000000
Si      -2.71322982       0.00135207      -2.71507487       0.00000000
Si       0.00154755      -2.71379997      -2.71507487       0.00000000
Si      -2.71379997      -2.71573848      -0.00195890       0.00000000
Si       0.00177561       2.71575477      -2.71493740       0.00000000
Si       2.71680940      -2.71412577      -0.00065297       0.00000000
