10
Lattice="16.28999089631971 0.0 0.0 0.0 16.28999089631971 0.0 0.0 0.0 34.36671206372826" Properties=species:S:1:pos:R:3:initial_magmoms:R:1 pbc="T T T"
Si      -2.05257258      -1.24295958      -0.25809415       0.00000000
Si       1.13452065      -1.64056590       1.38941258       0.00000000
Si      -0.82639170       2.23868583       0.71163190       0.00000000
Si       1.15952743      -1.11233007      -2.08087121       0.00000000
Si       2.32128657      -2.92659624      -0.32315037       0.00000000
Si      -2.12646402       1.74276936       2.63324768       0.00000000
Si      -3.51150498       0.15819219      -1.75356246       0.00000000
Si      -1.73537370      -3.43196091      -1.10423744       0.00000000
Si       2.21932584      -0.95379579       3.42089880       0.00000000
Si      -1.50627114      -2.35931328       3.12369531       0.00000000
