10
Lattice="16.28999089631971 0.0 0.0 0.0 16.28999089631971 0.0 0.0 0.0 34.36671206372826" Properties=species:S:1:pos:R:3:initial_magmoms:R:1 pbc="T T T"
Si      -2.30338224       0.13426218      -0.51484800       0.00000000
Si       0.62818964       1.84352301       1.43553273       0.00000000
Si       0.10549241      -2.35760283       0.63028585       0.00000000
Si       1.66539023       1.07282682      -1.70953868       0.00000000
Si      -2.39217903       2.38990590       0.51361080       0.00000000
Si       3.61033478       0.18961560      -0.35748274       0.00000000
Si       0.41024573      -2.08997442       2.98633148       0.00000000
Si      -3.21513354      -1.61370369       0.86281116       0.00000000
Si       2.98427750       1.65436353       1.53248128       0.00000000
Si      -0.30248738       3.82709115       0.50694365       0.00000000
