10
Lattice="16.28999089631971 0.0 0.0 0.0 16.28999089631971 0.0 0.0 0.0 34.36671206372826" Properties=species:S:1:pos:R:3:initial_magmoms:R:1 pbc="T T T"
Si       1.42688997       1.80243963      -0.34098671       0.00000000
Si      -0.70271802       0.80220105       2.08296758       0.00000000
Si      -1.78040415      -0.56930292      -1.42343564       0.00000000
Si       1.37907882      -1.89366363       0.29142988       0.00000000
Si       0.84927915      -2.23875099       2.52341161       0.00000000
Si      -1.92161564      -2.87443566      -1.08791325       0.00000000
Si      -0.86467320      -0.42831297      -3.58273173       0.00000000
Si      -1.49301108       3.02316336       1.73338919       0.00000000
Si       2.65543290       2.04848379       1.77483547       0.00000000
Si      -2.48718815      -0.52662312       2.82113060       0.00000000
