10
Lattice="16.28999089631971 0.0 0.0 0.0 16.28999089631971 0.0 0.0 0.0 34.36671206372826" Properties=species:S:1:pos:R:3:initial_magmoms:R:1 pbc="T T T"
Si       1.35677781       1.35071793      -1.35528641       0.00000000
Si       1.24465374      -1.46855979       1.34542316       0.00000000
Si      -1.36135530      -1.36293543      -1.35274328       0.00000000
Si      -1.45676583       1.24115139       1.39683579       0.00000000
Si      -0.58437117      -2.40792264       2.45646522       0.00000000
Si      -2.38899366      -0.69696765       2.48193097       0.00000000
Si       2.70348840       2.70029556       0.04608579       0.00000000
Si      -0.00368154       2.70700704      -2.71163820       0.00000000
Si       2.70933651      -0.00799839      -2.71246300       0.00000000
Si      -2.71855176      -0.00659745      -2.71256610       0.00000000
