10
Lattice="16.28999089631971 0.0 0.0 0.0 16.28999089631971 0.0 0.0 0.0 34.36671206372826" Properties=species:S:1:pos:R:3:initial_magmoms:R:1 pbc="T T T"
Si       1.08480518       0.68677011       2.03148622       0.00000000
Si      -1.13452065       1.64056590      -1.38941258       0.00000000
Si       1.18676592      -1.28603034      -1.71256295       0.00000000
Si      -1.16693775      -2.37814452       0.65657640       0.00000000
Si      -2.64079179      -0.71874738       1.73428273       0.00000000
Si       3.10868944       0.24490386      -0.96481161       0.00000000
Si      -0.90292572      -2.72321559      -1.70589581       0.00000000
Si       1.08325763      -3.03580440       1.35934169       0.00000000
Si       0.02500678       0.52823583      -3.47028379       0.00000000
Si      -3.18709323       0.39760632      -1.64750673       0.00000000
