10
Lattice="16.28999089631971 0.0 0.0 0.0 16.28999089631971 0.0 0.0 0.0 34.36671206372826" Properties=species:S:1:pos:R:3:initial_magmoms:R:1 pbc="T T T"
Si       2.35608786      -0.18915948       0.09694855       0.00000000
Si      -0.93067702       1.98356814      -0.92858908       0.00000000
Si      -1.03418531       0.23379408       2.14331556       0.00000000
Si      -0.62818964      -1.84352301      -1.43553273       0.00000000
Si       0.17125677      -1.78111602       2.60492950       0.00000000
Si      -3.02036867       0.54638289      -0.92192193       0.00000000
Si       1.03720059      -0.77069619      -3.14507141       0.00000000
Si       2.50916499      -1.14401412       2.30212423       0.00000000
Si       2.95588566       2.11698324      -0.26211506       0.00000000
Si       0.99124650       3.51450234      -0.18083774       0.00000000
