10
Lattice="16.28999089631971 0.0 0.0 0.0 16.28999089631971 0.0 0.0 0.0 34.36671206372826" Properties=species:S:1:pos:R:3:initial_magmoms:R:1 pbc="T T T"
Si       1.32709743      -1.34846991      -1.36009776       0.00000000
Si      -1.40683372      -1.21072167       1.44488048       0.00000000
Si      -1.38503444       1.37050118      -1.35996029       0.00000000
Si       1.33389036       1.39213755       1.40106290       0.00000000
Si      -2.02064907       0.70588547       2.77913446       0.00000000
Si      -0.43675119       2.66050628       2.43539841       0.00000000
Si       2.56047849      -2.74251924       0.17073392       0.00000000
Si      -2.82433481      -2.56091832       0.07735951       0.00000000
Si       2.67887421       0.01825598      -2.72541926       0.00000000
Si      -0.03517011      -2.69384472      -2.72380402       0.00000000
