10
Lattice="16.28999089631971 0.0 0.0 0.0 16.28999089631971 0.0 0.0 0.0 34.36671206372826" Properties=species:S:1:pos:R:3:initial_magmoms:R:1 pbc="T T T"
Si       1.07565802      -1.48774941       1.43910687       0.00000000
Si       1.40683372       1.21072167      -1.44488048       0.00000000
Si      -1.41750108      -1.35019665      -1.36752097       0.00000000
Si      -0.61381535       1.91660714       1.33425397       0.00000000
Si      -1.18291985      -2.39601465       2.20479764       0.00000000
Si      -2.95027605      -2.29016223       0.22596126       0.00000000
Si       2.74072408       2.60285922      -0.04381758       0.00000000
Si      -2.69776476       2.66213528       0.16715978       0.00000000
Si       2.47211827      -2.88326484       0.08155225       0.00000000
Si       0.02179928       2.58122285      -2.80484077       0.00000000
