10
Lattice="10.86 0.0 0.0 0.0 10.86 0.0 0.0 0.0 10.86" Properties=species:S:1:pos:R:3:initial_magmoms:R:1 pbc="T T T"
Si       1.03617432       1.48710324       1.01689782       0.00000000
Si       1.29765054      -0.78131184      -1.68159498       0.00000000
Si      -1.67882568      -1.22789676       1.01689782       0.00000000
Si      -1.67882568       1.48710324      -1.69810218       0.00000000
Si       2.39367432       0.12960324       2.37439782       0.00000000
Si       2.41763148      -2.49797376      -0.49113264       0.00000000
Si      -0.32132568      -2.58539676       2.37439782       0.00000000
Si       2.37510372       2.67050658      -0.39349038       0.00000000
Si      -0.32132568       2.84460324       2.37439782       0.00000000
Si      -0.34855170      -2.39028600      -2.90762382       0.00000000
