10
Lattice="16.28999089631971 0.0 0.0 0.0 16.28999089631971 0.0 0.0 0.0 34.385447050020396" Properties=species:S:1:pos:R:3:initial_magmoms:R:1 pbc="T T T"
Si      -1.28893159       1.34976628      -1.36850717       0.00000000
Si      -1.27531478      -1.50645457       1.22532609       0.00000000
Si       1.44863712      -1.37545039      -1.34753204       0.00000000
Si       0.78429834       1.84753330       1.38074840       0.00000000
Si       0.43745166      -2.28588220       2.57829103       0.00000000
Si      -2.61377027      -0.01412643      -2.72896814       0.00000000
Si      -2.66984045       2.73142870       0.07468523       0.00000000
Si       0.09974367       2.69868580      -2.72374155       0.00000000
Si       0.10192653      -2.72898649      -2.72834921       0.00000000
Si      -2.63913380      -2.83387780      -0.05205960       0.00000000
