10
Lattice="16.28999089631971 0.0 0.0 0.0 16.28999089631971 0.0 0.0 0.0 34.385447050020396" Properties=species:S:1:pos:R:3:initial_magmoms:R:1 pbc="T T T"
Si       1.35451350      -1.35922109      -1.36479354       0.00000000
Si      -1.36200690       1.35625253      -1.36427776       0.00000000
Si      -1.37015190      -1.35910706       1.37246150       0.00000000
Si       1.34879571       1.36556226       1.39439943       0.00000000
Si       2.70827766       2.71480106      -0.00223506       0.00000000
Si       2.71169856      -2.71233365      -0.00749603       0.00000000
Si      -2.71686249      -2.71264316      -0.00835567       0.00000000
Si       2.71134018      -0.00003721      -2.72205667       0.00000000
Si      -2.71904535       2.71502912      -0.00374802       0.00000000
Si      -0.00346977       2.71506170      -2.72154088       0.00000000
