10
Lattice="16.28999089631971 0.0 0.0 0.0 16.28999089631971 0.0 0.0 0.0 34.385447050020396" Properties=species:S:1:pos:R:3:initial_magmoms:R:1 pbc="T T T"
Si       2.07697500      -0.32510442       0.96767579       0.00000000
Si      -1.46575791       1.57911350       0.91895159       0.00000000
Si      -0.92041758      -2.08317890       0.58991706       0.00000000
Si      -0.08555508       0.39000866      -2.33491070       0.00000000
Si      -2.88820071      -1.69694300      -0.52534115       0.00000000
Si      -3.33752778       0.10061681       0.92355924       0.00000000
Si       2.73123027      -2.45766971       0.19159582       0.00000000
Si      -2.21338746       2.85901880      -0.89450352       0.00000000
Si       0.73000377      -1.55210729      -3.31414001       0.00000000
Si       1.20850623       2.33277035      -2.65015666       0.00000000
