10
Lattice="16.28999089631971 0.0 0.0 0.0 16.28999089631971 0.0 0.0 0.0 34.385447050020396" Properties=species:S:1:pos:R:3:initial_magmoms:R:1 pbc="T T T"
Si       1.36006839       1.34516304      -1.35315062       0.00000000
Si       1.35485559      -1.35619137       1.35310248       0.00000000
Si      -1.36210464      -1.35879777      -1.35274144       0.00000000
Si      -1.36164852       1.35692442       1.35516561       0.00000000
Si       2.47990815      -0.13598892      -2.82201522       0.00000000
Si      -2.54778532       0.09598068      -2.76371466       0.00000000
Si      -2.71204717       2.70585045      -0.00085964       0.00000000
Si       2.71178001      -0.00037467       2.71091577       0.00000000
Si      -0.00263898       2.71301805       2.71125963       0.00000000
Si      -0.00291591      -2.71531494       2.71105332       0.00000000
