10
Lattice="16.28999089631971 0.0 0.0 0.0 16.28999089631971 0.0 0.0 0.0 34.385447050020396" Properties=species:S:1:pos:R:3:initial_magmoms:R:1 pbc="T T T"
Si      -1.34074845      -1.34754138       1.35918871       0.00000000
Si       1.35773892      -1.35260757      -1.35967011       0.00000000
Si      -1.35848826       1.36096434      -1.35922310       0.00000000
Si       1.36629117       1.37029851       1.38700655       0.00000000
Si      -2.74286133       0.01555695       2.60765622       0.00000000
Si       2.71135647      -2.71191033       0.00354170       0.00000000
Si      -0.00039096      -2.71164969      -2.71576413       0.00000000
Si      -2.71596654      -2.71168227       0.00202874       0.00000000
Si       2.71443528       0.00345348      -2.71655499       0.00000000
Si       2.71290402       2.71811682       0.00024070       0.00000000
