10
Lattice="16.28999089631971 0.0 0.0 0.0 16.28999089631971 0.0 0.0 0.0 34.385447050020396" Properties=species:S:1:pos:R:3:initial_magmoms:R:1 pbc="T T T"
Si       0.74530008       2.16254637      -0.52093981       0.00000000
Si      -2.23143678      -0.60432642       0.40812110       0.00000000
Si       1.20278844      -0.49283766       2.02702324       0.00000000
Si       0.42037974      -1.53785745      -1.83549619       0.00000000
Si      -1.62531846      -2.55834450       1.64128708       0.00000000
Si       1.72674000      -2.95337700      -0.51822336       0.00000000
Si       2.92752477      -1.63149237       1.00666891       0.00000000
Si       2.88204309       1.98159705       0.47586047       0.00000000
Si      -3.04805448      -1.08458820      -1.76476529       0.00000000
Si      -0.18438651       3.76299000       0.97369325       0.00000000
