10
Lattice="16.28999089631971 0.0 0.0 0.0 16.28999089631971 0.0 0.0 0.0 34.385447050020396" Properties=species:S:1:pos:R:3:initial_magmoms:R:1 pbc="T T T"
Si       1.59855399      -0.41560677       1.65105255       0.00000000
Si      -1.27316124       1.95849783       0.22990123       0.00000000
Si      -1.22305320      -1.94486310       0.67309550       0.00000000
Si       1.12780557      -0.26507088      -2.13317117       0.00000000
Si      -2.50893693       1.79476704      -1.77903525       0.00000000
Si      -0.18134028      -2.08244844      -2.91004201       0.00000000
Si       2.70343953      -2.44990197       0.88336263       0.00000000
Si       3.46647942       0.03099987      -1.57158774       0.00000000
Si       2.41000776       1.73262069       2.41272501       0.00000000
Si       0.58370328      -1.15940817       3.66136445       0.00000000
