10
Lattice="16.28999089631971 0.0 0.0 0.0 16.28999089631971 0.0 0.0 0.0 34.385447050020396" Properties=species:S:1:pos:R:3:initial_magmoms:R:1 pbc="T T T"
Si      -1.35482301       1.35715063       1.36379636       0.00000000
Si       1.36301688      -1.36032903       1.36193955       0.00000000
Si       1.37134107       1.35138211      -1.36503080       0.00000000
Si      -1.36363590      -1.36195803      -1.39548945       0.00000000
Si      -2.70192456       2.70251167       0.00646447       0.00000000
Si      -2.71163340      -2.71412577      -0.00106595       0.00000000
Si      -2.71127502      -0.00123804       2.71748340       0.00000000
Si       0.00337203       2.71171552       2.71920267       0.00000000
Si       2.71854036       2.71277926       0.00350732       0.00000000
Si       0.00353493      -2.71722087       2.71841181       0.00000000
