10
Lattice="16.28999089631971 0.0 0.0 0.0 16.28999089631971 0.0 0.0 0.0 34.385447050020396" Properties=species:S:1:pos:R:3:initial_magmoms:R:1 pbc="T T T"
Si       1.35452979       1.33446051       1.36871348       0.00000000
Si      -1.35718506       1.35311256      -1.35729751       0.00000000
Si       1.35601218      -1.35891180      -1.35681611       0.00000000
Si      -1.36243044      -1.35448092       1.37022645       0.00000000
Si      -2.71169856       2.71233365       0.00749603       0.00000000
Si      -0.00035838       2.71229645      -2.71456063       0.00000000
Si       2.71406061      -0.00190593      -2.71500765       0.00000000
Si       2.71593396       2.71360449       0.00230383       0.00000000
Si      -2.71520091      -0.00265527      -2.71504203       0.00000000
Si      -0.00097740      -2.71717200      -2.71504203       0.00000000
