10
Lattice="16.28999089631971 0.0 0.0 0.0 16.28999089631971 0.0 0.0 0.0 34.385447050020396" Properties=species:S:1:pos:R:3:initial_magmoms:R:1 pbc="T T T"
Si       1.24931268       1.54605132       1.27026789       0.00000000
Si       1.50718338      -1.19042433      -1.42682492       0.00000000
Si      -1.21223664       1.51728318      -1.41709384       0.00000000
Si      -0.89005302      -1.90135251       1.23770486       0.00000000
Si      -2.22342210       0.60685137       2.50872923       0.00000000
Si      -2.63443509      -2.67331932      -0.16264326       0.00000000
Si       2.77969302      -2.54988999       0.06873655       0.00000000
Si       0.15385905      -2.55389733      -2.79921765       0.00000000
Si      -2.55894723       0.16374708      -2.79791100       0.00000000
Si       0.99258228      -3.43176543       1.42077308       0.00000000
