10
Lattice="16.28999089631971 0.0 0.0 0.0 16.28999089631971 0.0 0.0 0.0 34.385447050020396" Properties=species:S:1:pos:R:3:initial_magmoms:R:1 pbc="T T T"
Si       0.36947349      -0.12238677      -2.32232562       0.00000000
Si       0.56322675      -1.96631703       1.17312895       0.00000000
Si       1.20340746       1.58235751       1.29626331       0.00000000
Si      -2.20558455       0.90148438       0.08747663       0.00000000
Si      -2.04763671       2.06140895      -1.98868344       0.00000000
Si       1.28989107       1.96079213      -2.91224268       0.00000000
Si       0.15794784      -1.49073048       3.45023769       0.00000000
Si      -1.59830964       0.26384913      -3.43758383       0.00000000
Si       1.24232427       0.65031213       3.54225319       0.00000000
Si      -3.69111852      -0.84297492       0.66759383       0.00000000
