10
Lattice="16.28999089631971 0.0 0.0 0.0 16.28999089631971 0.0 0.0 0.0 34.385447050020396" Properties=species:S:1:pos:R:3:initial_magmoms:R:1 pbc="T T T"
Si      -1.35746199       1.35687718       1.35822592       0.00000000
Si       1.35754344      -1.35712202       1.35867293       0.00000000
Si      -1.34719929      -1.36139715      -1.36853812       0.00000000
Si       1.35309627       1.35967906      -1.36929460       0.00000000
Si      -2.45560347       0.05718767      -2.91338428       0.00000000
Si       0.09927126      -2.74579909      -2.65766988       0.00000000
Si       2.71329498       2.71235179      -0.00398871       0.00000000
Si      -2.71265967       2.71360612      -0.00419503       0.00000000
Si      -0.00011403      -2.71457116       2.71473256       0.00000000
Si      -0.00032580       2.71482787       2.71483572       0.00000000
