10
Lattice="16.28999089631971 0.0 0.0 0.0 16.28999089631971 0.0 0.0 0.0 34.385447050020396" Properties=species:S:1:pos:R:3:initial_magmoms:R:1 pbc="T T T"
Si      -1.35361755       1.35930276      -1.36321181       0.00000000
Si       1.36098063      -1.35766073      -1.36187078       0.00000000
Si       1.37054286       1.35171162       1.37438709       0.00000000
Si      -1.35948195      -1.34923880       1.39663448       0.00000000
Si      -2.70827766      -2.71480106       0.00223506       0.00000000
Si      -2.71135647       2.71191033      -0.00354170       0.00000000
Si      -2.71174743       0.00026064      -2.71930583       0.00000000
Si       2.71935486      -2.71353023      -0.00295715       0.00000000
Si       2.72142369       2.71189404      -0.00409187       0.00000000
Si       0.00306252      -2.71483827      -2.71982161       0.00000000
