10
Lattice="16.28999089631971 0.0 0.0 0.0 16.28999089631971 0.0 0.0 0.0 34.385447050020396" Properties=species:S:1:pos:R:3:initial_magmoms:R:1 pbc="T T T"
Si       1.33017624      -1.29806539      -1.50515501       0.00000000
Si       1.69665237       1.15413021       1.33742271       0.00000000
Si      -0.86108940      -1.90469522       1.28721993       0.00000000
Si      -1.37461536       1.40958999      -1.48662125       0.00000000
Si       3.49086555      -0.72119088       1.16295085       0.00000000
Si       2.68376121      -2.61943493      -0.10491006       0.00000000
Si      -2.71474479      -2.70885500      -0.04394463       0.00000000
Si       2.68376121       2.74809042      -0.10109327       0.00000000
Si      -2.52613917       2.90910078      -0.05591077       0.00000000
Si      -0.02580336      -2.65565186      -2.86396549       0.00000000
