10
Lattice="16.28999089631971 0.0 0.0 0.0 16.28999089631971 0.0 0.0 0.0 34.385447050020396" Properties=species:S:1:pos:R:3:initial_magmoms:R:1 pbc="T T T"
Si      -0.86320710       2.00753073      -0.94869501       0.00000000
Si      -1.38790800      -1.49565332      -1.25733896       0.00000000
Si       2.38568679       0.41394519      -0.15899840       0.00000000
Si      -0.35104950       0.18648792       2.46849824       0.00000000
Si       0.15512967      -1.45303053      -3.04459234       0.00000000
Si      -3.12816870       1.61665218      -1.33470626       0.00000000
Si       2.66701509       2.52644868       0.93573169       0.00000000
Si      -0.77690268       3.70058301       0.65359894       0.00000000
Si      -0.89500518       2.57579109       2.76627638       0.00000000
Si      -0.05217687       2.55031353      -3.09592984       0.00000000
