10
Lattice="16.28999089631971 0.0 0.0 0.0 16.28999089631971 0.0 0.0 0.0 34.385447050020396" Properties=species:S:1:pos:R:3:initial_magmoms:R:1 pbc="T T T"
Si      -1.34933328      -1.35324288      -1.36548125       0.00000000
Si       1.36277253       1.36635633      -1.36534371       0.00000000
Si      -1.23647616       1.41786531       1.45698098       0.00000000
Si       1.35816246      -1.37492487       1.39852568       0.00000000
Si       0.67553001       2.30122314       2.63010993       0.00000000
Si       2.20558455       0.34355610       2.82270293       0.00000000
Si      -2.70021411      -2.71342530       0.01299771       0.00000000
Si       2.73259863      -2.69500131      -0.00391994       0.00000000
Si       0.00571779      -2.70547578      -2.72463558       0.00000000
Si      -2.71021617       0.00733050      -2.72418856       0.00000000
