10
Lattice="16.28999089631971 0.0 0.0 0.0 16.28999089631971 0.0 0.0 0.0 34.385447050020396" Properties=species:S:1:pos:R:3:initial_magmoms:R:1 pbc="T T T"
Si      -1.35746199      -1.35710361      -1.35729751       0.00000000
Si       1.35769005       1.35751086      -1.35736628       0.00000000
Si      -1.35899325       1.35755973       1.35949818       0.00000000
Si       1.36088289      -1.36057338       1.35870731       0.00000000
Si      -2.71415835      -2.71316466      -0.00041263       0.00000000
Si       2.71427238       2.71406061       0.00079087       0.00000000
Si       2.71593396      -2.71280628      -0.00044701       0.00000000
Si      -0.00019548       2.71555929      -2.71428555       0.00000000
Si      -0.00008145      -2.71498914      -2.71490449       0.00000000
Si       2.71516833       0.00055386      -2.71480133       0.00000000
