10
Lattice="16.28999089631971 0.0 0.0 0.0 16.28999089631971 0.0 0.0 0.0 34.385447050020396" Properties=species:S:1:pos:R:3:initial_magmoms:R:1 pbc="T T T"
Si      -0.72971055      -2.01223854       0.79310078       0.00000000
Si       2.02707873       0.38196792       1.08592741       0.00000000
Si      -0.94216473       2.14094583      -0.13238405       0.00000000
Si       2.41450380      -0.86291388      -0.82858658       0.00000000
Si      -0.69317208      -1.39364208       3.02843117       0.00000000
Si      -1.26276822      -1.96274952      -2.64190414       0.00000000
Si      -2.78153379      -2.21526081      -0.35327628       0.00000000
Si       1.65477078      -0.89137251       3.10493883       0.00000000
Si      -0.01150074       3.19647267       1.72278063       0.00000000
Si      -3.54994938      -0.24004944      -1.53895593       0.00000000
