10
Lattice="16.28999089631971 0.0 0.0 0.0 16.28999089631971 0.0 0.0 0.0 34.385447050020396" Properties=species:S:1:pos:R:3:initial_magmoms:R:1 pbc="T T T"
Si      -1.34680900       1.34970795       1.35399651       0.00000000
Si       1.36429402       1.34801379      -1.35514842       0.00000000
Si      -1.32863472      -1.36777356      -1.37569030       0.00000000
Si       1.36440805      -1.36614456       1.34966394       0.00000000
Si       0.64859287      -2.17468242      -2.55119185       0.00000000
Si       2.45052751      -0.24096168      -2.69242671       0.00000000
Si      -2.63269273       0.08143371      -2.69539418       0.00000000
Si      -2.70865300       2.70146844      -0.00515782       0.00000000
Si      -2.70611176      -0.00816129       2.70916212       0.00000000
Si       0.00857180       2.70620883       2.71002175       0.00000000
