10
Lattice="16.28999089631971 0.0 0.0 0.0 16.28999089631971 0.0 0.0 0.0 34.385447050020396" Properties=species:S:1:pos:R:3:initial_magmoms:R:1 pbc="T T T"
Si      -0.92664036       0.04665456       2.26655239       0.00000000
Si      -2.13539094       0.50499000      -1.09036314       0.00000000
Si       0.36571050      -1.74822651      -1.73749761       0.00000000
Si       2.22268905       1.59873318       0.14820136       0.00000000
Si      -1.12054023       1.24879140      -3.10067504       0.00000000
Si       0.85854816       1.14083757       3.64876015       0.00000000
Si      -0.01565469      -0.78550380      -3.86836495       0.00000000
Si      -3.13616709       2.44723041       0.09456003       0.00000000
Si      -2.55454893       1.97490186       2.35454480       0.00000000
Si       1.81903914       2.81818629       2.25379539       0.00000000
