10
Lattice="16.28999089631971 0.0 0.0 0.0 16.28999089631971 0.0 0.0 0.0 34.385447050020396" Properties=species:S:1:pos:R:3:initial_magmoms:R:1 pbc="T T T"
Si      -1.29114540       1.35984033      -1.31610028       0.00000000
Si       1.32546843       1.38838041       1.34105382       0.00000000
Si      -1.38932523      -1.32651099       1.34425166       0.00000000
Si       1.29301875      -1.30543173      -1.57084157       0.00000000
Si      -2.12913558      -0.42311646      -2.60049304       0.00000000
Si       0.34751457       2.42227413      -2.64620852       0.00000000
Si       2.05138341       0.62143092      -2.90150895       0.00000000
Si      -0.47719926      -2.36882664      -2.84628589       0.00000000
Si       2.67683796      -2.66431095      -0.03481528       0.00000000
Si      -0.03311757      -2.67867873       2.69982990       0.00000000
