10
Lattice="16.28999089631971 0.0 0.0 0.0 16.28999089631971 0.0 0.0 0.0 34.385447050020396" Properties=species:S:1:pos:R:3:initial_magmoms:R:1 pbc="T T T"
Si       1.76448393       1.02778922      -1.23712031       0.00000000
Si      -1.01695212      -1.83666492      -1.16384488       0.00000000
Si       0.79832403      -0.51385176       2.20713431       0.00000000
Si      -1.78036668       1.74252894       0.15500968       0.00000000
Si      -1.33203330      -0.37418130       3.09857752       0.00000000
Si      -2.30648481      -0.38757168      -2.62976607       0.00000000
Si       0.41089896       2.34915876      -2.63736526       0.00000000
Si      -2.14301466       1.74040472       2.59654971       0.00000000
Si       2.57158827       2.92603328       0.03074061       0.00000000
Si      -0.91927728       3.64722416      -1.13221025       0.00000000
