10
Lattice="16.28999089631971 0.0 0.0 0.0 16.28999089631971 0.0 0.0 0.0 34.385447050020396" Properties=species:S:1:pos:R:3:initial_magmoms:R:1 pbc="T T T"
Si      -2.01723957       1.19728242       0.07798624       0.00000000
Si      -0.63011349      -1.26649863       1.87387037       0.00000000
Si       1.52142084       1.65240873       0.81919935       0.00000000
Si       0.61607151      -1.30196196      -1.91128176       0.00000000
Si      -2.76749181      -0.19732077       2.03864552       0.00000000
Si      -2.42786160       1.68655257      -2.21053847       0.00000000
Si       0.30055050      -0.21097179       3.72903505       0.00000000
Si      -1.53095049       3.36556517       0.96709124       0.00000000
Si       0.71043948       3.76699475       0.31717154       0.00000000
Si       1.83650202       0.18992511      -3.44322305       0.00000000
