10
Lattice="16.28999089631971 0.0 0.0 0.0 16.28999089631971 0.0 0.0 0.0 34.385447050020396" Properties=species:S:1:pos:R:3:initial_magmoms:R:1 pbc="T T T"
Si      -0.07143165      -1.15272927       1.96540448       0.00000000
Si      -0.93066399      -1.05552684      -1.85516468       0.00000000
Si      -0.09396072       2.26160586       0.66676858       0.00000000
Si       1.81853415       1.52093214      -0.64916322       0.00000000
Si       2.98318770      -0.58955139      -0.76291034       0.00000000
Si      -3.06804231       0.01365102      -1.69038952       0.00000000
Si       2.03857947      -2.81450475      -0.63685322       0.00000000
Si      -1.00424592       0.31371282       3.45959053       0.00000000
Si       0.01150074      -3.19647267      -1.72278063       0.00000000
Si       1.22087034       1.86338052      -2.90983570       0.00000000
