10
Lattice="16.28999089631971 0.0 0.0 0.0 16.28999089631971 0.0 0.0 0.0 34.385447050020396" Properties=species:S:1:pos:R:3:initial_magmoms:R:1 pbc="T T T"
Si       1.48098906       1.38450339       1.19135325       0.00000000
Si      -0.59766381       0.34244838      -2.26067248       0.00000000
Si       1.16465355      -2.11048353      -0.11374712       0.00000000
Si      -1.91249487       0.74067372       1.31593179       0.00000000
Si      -1.81853415      -1.52093214       0.64916322       0.00000000
Si       1.53269352       0.20277792      -3.15211569       0.00000000
Si       3.47115465       0.71164494       0.13606329       0.00000000
Si       0.22141368       3.36900725       1.19045923       0.00000000
Si       3.14535465      -1.53274239       1.02028556       0.00000000
Si       2.67537186       1.79215154      -1.79468064       0.00000000
