10
Lattice="16.28999089631971 0.0 0.0 0.0 16.28999089631971 0.0 0.0 0.0 34.385447050020396" Properties=species:S:1:pos:R:3:initial_magmoms:R:1 pbc="T T T"
Si       1.72556712       0.12126276      -1.52805574       0.00000000
Si       0.74570733       1.83175741       1.25864561       0.00000000
Si      -2.07596502       0.13331736      -1.13090360       0.00000000
Si       0.04621473      -2.08973007       1.12216969       0.00000000
Si      -2.73022029       2.26588266      -0.35482363       0.00000000
Si      -0.79733034       1.78913463       3.04589899       0.00000000
Si       2.70764235      -1.98451296      -1.52932800       0.00000000
Si       1.23215931      -3.46784778      -0.41527328       0.00000000
Si      -3.15431415      -1.89851805      -0.77387930       0.00000000
Si      -2.20472118      -2.87006994       1.17223493       0.00000000
