10
Lattice="16.28999089631971 0.0 0.0 0.0 16.28999089631971 0.0 0.0 0.0 34.385447050020396" Properties=species:S:1:pos:R:3:initial_magmoms:R:1 pbc="T T T"
Si       1.09480203      -0.84751983      -1.88198534       0.00000000
Si      -1.80703341       1.16734140      -0.95017359       0.00000000
Si      -1.01012661      -2.15896257       0.39357605       0.00000000
Si       1.89242559       0.06911847       1.66528813       0.00000000
Si       0.81158409      -2.96996022      -0.86520710       0.00000000
Si      -2.89875663       1.84375107       1.16057826       0.00000000
Si      -0.88883127       3.09596730      -2.03812974       0.00000000
Si      -3.26489067      -0.46737639      -2.07113979       0.00000000
Si      -3.20722407      -2.21571693      -0.50687616       0.00000000
Si       3.33163080      -0.33717042      -2.17505267       0.00000000
