10
Lattice="16.28999089631971 0.0 0.0 0.0 16.28999089631971 0.0 0.0 0.0 34.385447050020396" Properties=species:S:1:pos:R:3:initial_magmoms:R:1 pbc="T T T"
Si       1.35716877      -1.35690813      -1.35746944       0.00000000
Si      -1.35774218       1.35780408      -1.35609402       0.00000000
Si       1.35689184       1.35782037       1.35698804       0.00000000
Si      -1.35949498      -1.35627282       1.35654103       0.00000000
Si      -2.71312298       0.00130320      -2.71211927       0.00000000
Si      -2.71551737       0.00006516       2.71036561       0.00000000
Si      -0.00156384       2.71533123      -2.71335714       0.00000000
Si       2.71498914      -2.71479366       0.00044701       0.00000000
Si      -2.71506112      -2.71489140      -0.00044701       0.00000000
Si      -2.71494655       2.71503801      -0.00079087       0.00000000
