10
Lattice="16.28999089631971 0.0 0.0 0.0 16.28999089631971 0.0 0.0 0.0 34.385447050020396" Properties=species:S:1:pos:R:3:initial_magmoms:R:1 pbc="T T T"
Si      -1.35747828       1.35695700       1.35743505       0.00000000
Si       1.35703845      -1.35783666       1.35729751       0.00000000
Si      -1.35777150      -1.35842310      -1.35815715       0.00000000
Si       1.35982404       1.35796698      -1.35815715       0.00000000
Si       2.71257822      -0.00490329      -2.71342591       0.00000000
Si       0.00076563      -2.71336014       2.71435432       0.00000000
Si      -0.00089595       2.71350675       2.71559220       0.00000000
Si       2.71479366       2.71484253       0.00055017       0.00000000
Si       2.71511946      -2.71453302       0.00089402       0.00000000
Si      -2.71516833      -0.00055386       2.71480133       0.00000000
