10
Lattice="16.28999089631971 0.0 0.0 0.0 16.28999089631971 0.0 0.0 0.0 34.385447050020396" Properties=species:S:1:pos:R:3:initial_magmoms:R:1 pbc="T T T"
Si      -1.13533155       0.58137381      -2.08795428       0.00000000
Si      -1.20238119      -0.69765183       2.02375662       0.00000000
Si       1.66753467      -1.81418472      -0.30603065       0.00000000
Si       0.68764977       2.37757437       0.57461553       0.00000000
Si      -3.32734653       0.19627821       1.44962249       0.00000000
Si      -0.21098808       0.81508644       3.61119605       0.00000000
Si      -3.67147278      -0.51144084      -0.90952997       0.00000000
Si       0.58665177       1.46714256      -3.55164043       0.00000000
Si      -0.54345069       2.95360506       2.53427763       0.00000000
Si       2.76486002       2.31453207       1.60669530       0.00000000
