10
Lattice="16.28999089631971 0.0 0.0 0.0 16.28999089631971 0.0 0.0 0.0 34.385447050020396" Properties=species:S:1:pos:R:3:initial_magmoms:R:1 pbc="T T T"
Si       1.10701953       1.97697069       0.50742633       0.00000000
Si      -2.30542596      -0.27336249       0.04215658       0.00000000
Si       0.81961506      -0.11841201      -2.18306448       0.00000000
Si       1.00286127      -1.96804377       0.85227817       0.00000000
Si      -0.40884642      -2.07417312      -2.69846824       0.00000000
Si      -2.24839467      -2.28810969      -1.21497607       0.00000000
Si       3.26102409      -1.20070332       0.58881672       0.00000000
Si       3.07379987       1.03019589       1.42610283       0.00000000
Si       3.08932912      -0.66396411      -1.72962334       0.00000000
Si       0.89489115       3.37090599      -1.44140436       0.00000000
