10
Lattice="16.28999089631971 0.0 0.0 0.0 16.28999089631971 0.0 0.0 0.0 34.385447050020396" Properties=species:S:1:pos:R:3:initial_magmoms:R:1 pbc="T T T"
Si       1.35770634      -1.35715248      -1.35688488       0.00000000
Si      -1.35739683       1.35892809      -1.35643787       0.00000000
Si       1.35795069       1.35687555       1.35819153       0.00000000
Si      -1.35798327      -1.35848826       1.35815715       0.00000000
Si       0.00123804       2.71536381      -2.71335714       0.00000000
Si      -2.71471221       0.00330687      -2.71411362       0.00000000
Si      -2.71456560      -2.71503801       0.00000000       0.00000000
Si       0.00273672      -2.71402803      -2.71559220       0.00000000
Si       0.00073305      -2.71352304       2.71621114       0.00000000
Si       2.71551133      -2.71492398      -0.00037824       0.00000000
