10
Lattice="16.28999089631971 0.0 0.0 0.0 16.28999089631971 0.0 0.0 0.0 34.385447050020396" Properties=species:S:1:pos:R:3:initial_magmoms:R:1 pbc="T T T"
Si      -1.23947352       1.39417965       1.38453080       0.00000000
Si       1.34930969       1.34956134      -1.35262109       0.00000000
Si      -1.36896273      -1.35856971      -1.34945762       0.00000000
Si       1.19583261      -1.49560119       1.37490287       0.00000000
Si      -2.05620525      -0.42370290       2.64599601       0.00000000
Si       0.36432585       2.45076534       2.80162463       0.00000000
Si      -0.52615071      -2.38136994       2.83858901       0.00000000
Si       2.66708092      -2.71808424      -0.00887145       0.00000000
Si       2.70356075      -0.00125433      -2.70885265       0.00000000
Si       2.70855200       2.70762606      -0.00997179       0.00000000
