10
Lattice="16.28999089631971 0.0 0.0 0.0 16.28999089631971 0.0 0.0 0.0 34.385447050020396" Properties=species:S:1:pos:R:3:initial_magmoms:R:1 pbc="T T T"
Si      -1.60919136       1.63255122       0.36314491       0.00000000
Si       1.11982088      -0.11381823       2.08609747       0.00000000
Si       1.71632973       1.34170956      -1.01419933       0.00000000
Si      -0.81638964      -1.92204081      -1.20328501       0.00000000
Si       2.76117848       1.41359733       1.28498487       0.00000000
Si      -1.71536958       1.87207938       2.69616441       0.00000000
Si       3.17355983      -0.23763852      -2.03506944       0.00000000
Si      -3.58989246       1.05481008      -0.77088777       0.00000000
Si       0.22533957       1.15955478       3.84642703       0.00000000
Si       0.41471082      -2.49807150      -3.16294711       0.00000000
