10
Lattice="16.28999089631971 0.0 0.0 0.0 16.28999089631971 0.0 0.0 0.0 34.385447050020396" Properties=species:S:1:pos:R:3:initial_magmoms:R:1 pbc="T T T"
Si      -1.83840795      -1.19459457      -0.81459170       0.00000000
Si       1.20935331      -1.58902434       1.23096531       0.00000000
Si       1.47548304       1.48333482      -1.11405472       0.00000000
Si      -1.18594458       1.37811771       1.53744297       0.00000000
Si       3.41619219       0.77081022       0.03620790       0.00000000
Si       2.88368838      -0.12619863       2.12399025       0.00000000
Si      -1.23215931       3.46784778       0.41527328       0.00000000
Si       0.49340781       3.58911054      -1.11278246       0.00000000
Si      -3.43688049       0.59777784       1.58750821       0.00000000
Si      -0.04585635       1.31349528       3.61731667       0.00000000
