10
Lattice="16.28999089631971 0.0 0.0 0.0 16.28999089631971 0.0 0.0 0.0 34.385447050020396" Properties=species:S:1:pos:R:3:initial_magmoms:R:1 pbc="T T T"
Si       1.22663700       1.54557891       1.32188048       0.00000000
Si       1.71846468      -1.22592024      -1.24042131       0.00000000
Si      -1.30478013      -1.85785821       1.09902827       0.00000000
Si      -2.05431561       0.26155224      -1.49439236       0.00000000
Si       1.57503123       2.68413588      -0.74104118       0.00000000
Si      -0.00407250      -2.47798593      -2.31262892       0.00000000
Si      -0.97347411       3.30063093       1.03610287       0.00000000
Si      -3.54134826      -0.78249015       1.35114251       0.00000000
Si       2.55907659      -2.90297574       0.37421703       0.00000000
Si      -1.77109767       2.38399263      -2.51117060       0.00000000
