10
Lattice="16.28999089631971 0.0 0.0 0.0 16.28999089631971 0.0 0.0 0.0 34.385447050020396" Properties=species:S:1:pos:R:3:initial_magmoms:R:1 pbc="T T T"
Si      -0.39283824      -2.14047342       0.89759821       0.00000000
Si       2.12888960       0.13207932       1.11886869       0.00000000
Si       0.81902699      -0.97445151      -2.06302482       0.00000000
Si      -1.66753467       1.81418472       0.30603065       0.00000000
Si       1.66842017      -3.23234651       0.36599890       0.00000000
Si       3.30833447       1.55533662      -0.23609061       0.00000000
Si       1.75656536       0.71433279      -3.36190142       0.00000000
Si      -2.86991586       1.11653289       2.32978727       0.00000000
Si      -0.98612397      -1.98016353      -3.16910211       0.00000000
Si      -0.61774612      -2.10432591       3.20561948       0.00000000
