10
Lattice="16.28999089631971 0.0 0.0 0.0 16.28999089631971 0.0 0.0 0.0 34.385447050020396" Properties=species:S:1:pos:R:3:initial_magmoms:R:1 pbc="T T T"
Si       1.35474156      -1.35436689       1.36035782       0.00000000
Si      -1.35752715      -1.35729909      -1.35726312       0.00000000
Si       1.35734796       1.35745351      -1.35733190       0.00000000
Si      -1.35565380       1.35821133       1.36004835       0.00000000
Si       0.00039096      -2.71430496      -2.71359784       0.00000000
Si      -2.71402803       2.71408083       0.00113472       0.00000000
Si       0.00029322       2.71432844      -2.71435432       0.00000000
Si       2.71490769       2.71378272       0.00037824       0.00000000
Si      -2.71433754      -0.00017919      -2.71480133       0.00000000
Si       2.71494027      -0.00117288      -2.71480133       0.00000000
