10
Lattice="16.28999089631971 0.0 0.0 0.0 16.28999089631971 0.0 0.0 0.0 34.385447050020396" Properties=species:S:1:pos:R:3:initial_magmoms:R:1 pbc="T T T"
Si      -1.35795069      -1.35687555      -1.35819153       0.00000000
Si       1.35719376       1.35853713      -1.35805399       0.00000000
Si       1.36105478      -1.36226754       1.35485614       0.00000000
Si      -1.36099692       1.36199061       1.35932625       0.00000000
Si       2.72029709      -0.00420282       2.69750544       0.00000000
Si       0.01174509      -2.71182888       2.70747723       0.00000000
Si       2.71300080       2.71407690      -0.00037824       0.00000000
Si       2.71530584      -2.71308321      -0.00137542       0.00000000
Si      -0.00024435      -2.71402803      -2.71507642       0.00000000
Si       2.71378435       0.00125433      -2.71569535       0.00000000
