10
Lattice="16.28999089631971 0.0 0.0 0.0 16.28999089631971 0.0 0.0 0.0 34.385447050020396" Properties=species:S:1:pos:R:3:initial_magmoms:R:1 pbc="T T T"
Si      -1.35474156       1.35436689      -1.36035782       0.00000000
Si       1.36169739       1.35032697       1.36733807       0.00000000
Si       1.36099692      -1.36199061      -1.35932625       0.00000000
Si      -1.35003375      -1.36018242       1.37517795       0.00000000
Si       2.69404020      -0.10622709       2.67281668       0.00000000
Si       0.13326849      -2.67963984       2.73268178       0.00000000
Si      -2.71039536       2.71257822      -0.00030947       0.00000000
Si       0.00260640       2.71182040      -2.71768971       0.00000000
Si      -2.71226871      -0.00293220      -2.71762094       0.00000000
Si      -2.71148679      -2.71898019       0.00226944       0.00000000
