10
Lattice="16.28999089631971 0.0 0.0 0.0 16.28999089631971 0.0 0.0 0.0 34.385447050020396" Properties=species:S:1:pos:R:3:initial_magmoms:R:1 pbc="T T T"
Si       1.92827566       1.29795855       0.35117877       0.00000000
Si      -1.99016559       0.67285845       1.05528996       0.00000000
Si      -0.79578279       1.08050660      -1.93074393       0.00000000
Si      -0.32580000      -2.24438733       0.88422227       0.00000000
Si      -1.41405345       0.10091655       3.21851403       0.00000000
Si      -3.47115465      -0.71164494      -0.13606329       0.00000000
Si       3.59835416      -0.18443538      -0.47335033       0.00000000
Si      -2.30650110      -2.82212847      -0.24981041       0.00000000
Si       2.23086241       1.39665966       2.66827780       0.00000000
Si      -0.43197822      -2.00485917       3.21724177       0.00000000
