10
Lattice="16.28999089631971 0.0 0.0 0.0 16.28999089631971 0.0 0.0 0.0 34.385447050020396" Properties=species:S:1:pos:R:3:initial_magmoms:R:1 pbc="T T T"
Si       1.45332864      -1.80599085      -0.40915266       0.00000000
Si       0.81661770       0.48026178       2.17288638       0.00000000
Si      -2.39299190       0.01221750       0.18554398       0.00000000
Si       0.58285620       1.51166313      -1.81895678       0.00000000
Si       3.46843422      -0.45326925      -0.07073090       0.00000000
Si      -1.49435405       1.57470543      -2.85103655       0.00000000
Si      -2.72545451       2.15073612      -0.89137444       0.00000000
Si       3.04805448       1.08458820       1.76476529       0.00000000
Si       1.61442045      -2.48497434      -2.61281404       0.00000000
Si      -3.38438501      -1.50052077      -1.40189546       0.00000000
