10
Lattice="16.28999089631971 0.0 0.0 0.0 16.28999089631971 0.0 0.0 0.0 34.385447050020396" Properties=species:S:1:pos:R:3:initial_magmoms:R:1 pbc="T T T"
Si      -1.15271298       1.43667930      -1.43297992       0.00000000
Si       2.18602745      -0.78933195      -0.36813080       0.00000000
Si      -0.89262684      -2.22055506       0.28350817       0.00000000
Si       0.17922258       1.34977052       2.05277795       0.00000000
Si       0.21667329      -2.43076122       2.34670492       0.00000000
Si       2.47416497      -1.92339288       1.75579068       0.00000000
Si      -0.46907055       3.56386823      -0.60803820       0.00000000
Si      -0.38439513      -0.34296966       3.65472805       0.00000000
Si      -1.33949412       3.12218117       1.51877166       0.00000000
Si       3.67156142       0.95512735      -0.94824800       0.00000000
