10
Lattice="16.28999089631971 0.0 0.0 0.0 16.28999089631971 0.0 0.0 0.0 34.385447050020396" Properties=species:S:1:pos:R:3:initial_magmoms:R:1 pbc="T T T"
Si       0.44294139      -0.12658959      -2.36541061       0.00000000
Si      -0.75836466      -1.92686265       1.33066738       0.00000000
Si       2.01997629       0.68659092       1.22926808       0.00000000
Si      -1.70386884       1.80084321       0.25530044       0.00000000
Si      -2.05138341      -0.62143092       2.90150895       0.00000000
Si       0.65264256       2.13291486       2.84807738       0.00000000
Si      -3.34252881       0.73840941       1.58540867       0.00000000
Si       2.64305250      -1.88164161      -2.07963300       0.00000000
Si      -0.70551990       3.54461833       1.46462972       0.00000000
Si       3.53176227       1.50957801      -0.71607733       0.00000000
