10
Lattice="16.28999089631971 0.0 0.0 0.0 16.28999089631971 0.0 0.0 0.0 34.385447050020396" Properties=species:S:1:pos:R:3:initial_magmoms:R:1 pbc="T T T"
Si       0.54166531      -1.91928780      -1.21473537       0.00000000
Si      -2.26971406       0.54555210      -0.45344114       0.00000000
Si       0.17169497      -0.53673921       2.31844006       0.00000000
Si       1.82165694       1.44236547      -0.56687880       0.00000000
Si       2.21211195      -2.75289597       0.16553163       0.00000000
Si      -2.08646785      -1.30407966       2.58190151       0.00000000
Si      -0.01552926       1.69416000       3.15572617       0.00000000
Si      -3.08932912       0.66396411       1.72962334       0.00000000
Si       1.61584908      -1.02666096      -3.16604181       0.00000000
Si       3.33625227       0.00550602      -1.65253112       0.00000000
