10
Lattice="16.28999089631971 0.0 0.0 0.0 16.28999089631971 0.0 0.0 0.0 34.385447050020396" Properties=species:S:1:pos:R:3:initial_magmoms:R:1 pbc="T T T"
Si      -0.80154945       1.52570511       1.51743063       0.00000000
Si      -0.35210835      -2.23392915       0.42813344       0.00000000
Si      -1.71276644       0.77942763      -1.35296494       0.00000000
Si       1.33336908      -2.50820388      -1.27102438       0.00000000
Si      -3.00268602       1.26638460       0.58479362       0.00000000
Si       2.22342210      -0.60685137      -2.50872923       0.00000000
Si      -0.43745166       2.28588220      -2.57829103       0.00000000
Si       3.47273478       0.93919995      -1.23846134       0.00000000
Si      -0.34220403      -2.84032440       2.67402017       0.00000000
Si      -0.45274797       3.76512792       1.03149522       0.00000000
