10
Lattice="10.86 0.0 0.0 0.0 10.86 0.0 0.0 0.0 10.86" Properties=species:S:1:pos:R:3:initial_magmoms:R:1 pbc="T T T"
Si       0.68290938       0.76071042       1.94502600       0.00000000
Si       0.68290938      -1.95428958      -0.76997400       0.00000000
Si      -2.03209062       0.76071042      -0.76997400       0.00000000
Si       2.04040938       2.11821042       0.58752600       0.00000000
Si       2.04040938      -0.59678958      -2.12747400       0.00000000
Si      -0.67459062       2.11821042      -2.12747400       0.00000000
Si      -2.09412294      -1.56083178       1.79022756       0.00000000
Si       3.39790938       0.76071042      -0.76997400       0.00000000
Si       0.68290938       3.47571042      -0.76997400       0.00000000
Si       0.68290938       0.76071042      -3.48497400       0.00000000
