10
Lattice="10.86 0.0 0.0 0.0 10.86 0.0 0.0 0.0 10.86" Properties=species:S:1:pos:R:3:initial_magmoms:R:1 pbc="T T T"
Si       1.17697422      -1.44555288      -1.24244916       0.00000000
Si       1.17697422       1.26944712       1.47255084       0.00000000
Si      -1.53802578      -1.44555288       1.47255084       0.00000000
Si      -0.05773176       2.52110556      -2.51443752       0.00000000
Si       2.53447422      -0.08805288      -2.59994916       0.00000000
Si       2.53447422       2.62694712       0.11505084       0.00000000
Si       2.53447422      -2.80305288       0.11505084       0.00000000
Si       2.53447422      -0.08805288       2.83005084       0.00000000
Si      -0.18052578       2.62694712       2.83005084       0.00000000
Si      -2.82730326       2.63500524       0.13706406       0.00000000
