10
Lattice="10.86 0.0 0.0 0.0 10.86 0.0 0.0 0.0 10.86" Properties=species:S:1:pos:R:3:initial_magmoms:R:1 pbc="T T T"
Si      -1.28730096       1.06163016      -1.24937784       0.00000000
Si       1.33566054       1.84756836       1.02679128       0.00000000
Si       1.42769904      -1.65336984      -1.24937784       0.00000000
Si      -1.28730096      -1.65336984       1.46562216       0.00000000
Si      -0.01712622       2.62592628      -2.37453900       0.00000000
Si       0.13163406       2.32949172       2.69923128       0.00000000
Si      -2.64480096       2.41913016       0.10812216       0.00000000
Si      -2.64480096      -0.29586984      -2.60687784       0.00000000
Si       2.62327644       0.16394256       2.68187700       0.00000000
Si      -2.64480096      -0.29586984       2.82312216       0.00000000
