10
Lattice="10.86 0.0 0.0 0.0 10.86 0.0 0.0 0.0 10.86" Properties=species:S:1:pos:R:3:initial_magmoms:R:1 pbc="T T T"
Si      -1.26169308       1.24357860      -1.44940818       0.00000000
Si       1.45330692       1.24357860       1.26559182       0.00000000
Si       1.45330692      -1.47142140      -1.44940818       0.00000000
Si      -0.94771962      -1.62593748       1.71744384       0.00000000
Si      -2.61919308       2.60107860      -0.09190818       0.00000000
Si       0.09580692       2.60107860       2.62309182       0.00000000
Si      -2.62851096      -0.11593050       2.66669472       0.00000000
Si      -2.70651834      -2.62212528       0.14043066       0.00000000
Si       0.09580692       2.60107860      -2.80690818       0.00000000
Si       2.81080692       2.60107860      -0.09190818       0.00000000
