10
Lattice="10.86 0.0 0.0 0.0 10.86 0.0 0.0 0.0 10.86" Properties=species:S:1:pos:R:3:initial_magmoms:R:1 pbc="T T T"
Si      -1.20402648       0.48192336       1.67244000       0.00000000
Si      -1.33566054      -1.84756836      -1.02679128       0.00000000
Si       0.40601196       1.77454572      -1.82431710       0.00000000
Si       1.28761590      -1.68362580       1.65508572       0.00000000
Si      -2.62296150       1.92906180       0.43883088       0.00000000
Si      -2.62296150      -0.78593820      -2.27616912       0.00000000
Si      -1.27477938       3.28455270      -0.87506622       0.00000000
Si       0.09203850       1.92906180       3.15383088       0.00000000
Si      -1.35278676       0.77835792      -3.40133028       0.00000000
Si       1.51082148       3.23922306       1.78137666       0.00000000
