10
Lattice="10.86 0.0 0.0 0.0 10.86 0.0 0.0 0.0 10.86" Properties=species:S:1:pos:R:3:initial_magmoms:R:1 pbc="T T T"
Si       1.29621702       1.40483874       1.37245422       0.00000000
Si      -1.41878298      -1.31016126       1.37245422       0.00000000
Si      -1.41878298       1.40483874      -1.34254578       0.00000000
Si       2.70335808      -2.44240314      -0.05892636       0.00000000
Si       2.85746148      -0.10023780      -2.50743282       0.00000000
Si       2.65371702       0.04733874       2.72995422       0.00000000
Si      -0.06128298      -2.66766126       2.72995422       0.00000000
Si       2.65371702       2.76233874       0.01495422       0.00000000
Si      -2.78560086       0.04532964      -2.65644288       0.00000000
Si      -0.06128298       2.76233874      -2.70004578       0.00000000
