10
Lattice="10.86 0.0 0.0 0.0 10.86 0.0 0.0 0.0 10.86" Properties=species:S:1:pos:R:3:initial_magmoms:R:1 pbc="T T T"
Si       1.19542536       1.36738260       1.37479998       0.00000000
Si      -1.27830888      -1.29722700       1.41286428       0.00000000
Si      -1.27830888       1.41777300      -1.30213572       0.00000000
Si       1.43669112      -1.29722700      -1.30213572       0.00000000
Si       0.02443500       2.56744518       2.71546698       0.00000000
Si      -2.63580888      -2.65472700       0.05536428       0.00000000
Si      -2.63580888       0.06027300      -2.65963572       0.00000000
Si       0.07919112      -2.65472700      -2.65963572       0.00000000
Si       2.71915938       0.10082424       2.60865888       0.00000000
Si      -2.63580888       0.06027300       2.77036428       0.00000000
