10
Lattice="10.86 0.0 0.0 0.0 10.86 0.0 0.0 0.0 10.86" Properties=species:S:1:pos:R:3:initial_magmoms:R:1 pbc="T T T"
Si      -1.28831094       1.25565492      -1.38211962       0.00000000
Si      -1.28831094      -1.45934508       1.33288038       0.00000000
Si       1.41948888       1.39070988       1.29503328       0.00000000
Si       1.42668906      -1.45934508      -1.38211962       0.00000000
Si       0.12574794       2.45886690       2.64239004       0.00000000
Si      -2.64581094       2.61315492      -0.02461962       0.00000000
Si       2.74532112       2.52173544      -0.02354448       0.00000000
Si      -2.64581094      -0.10184508       2.69038038       0.00000000
Si       0.06918906       2.61315492      -2.73961962       0.00000000
Si      -2.64581094      -0.10184508      -2.73961962       0.00000000
