10
Lattice="10.86 0.0 0.0 0.0 10.86 0.0 0.0 0.0 10.86" Properties=species:S:1:pos:R:3:initial_magmoms:R:1 pbc="T T T"
Si       1.35750000       1.35750000       1.35750000       0.00000000
Si       1.35750000      -1.35750000      -1.35750000       0.00000000
Si      -1.35750000       1.35750000      -1.35750000       0.00000000
Si      -1.35750000      -1.35750000       1.35750000       0.00000000
Si      -2.50578210      -0.11222724      -2.62910826       0.00000000
Si      -2.44159950       2.85207492      -0.14398188       0.00000000
Si       2.66024388      -0.20782782       2.66010270       0.00000000
Si       2.77155888       2.56071198      -0.04799034       0.00000000
Si       2.64581094       0.10184508      -2.69038038       0.00000000
Si      -2.68601466      -2.67757644      -0.06284682       0.00000000
