10
Lattice="10.86 0.0 0.0 0.0 10.86 0.0 0.0 0.0 10.86" Properties=species:S:1:pos:R:3:initial_magmoms:R:1 pbc="T T T"
Si       1.08409950      -1.49457492      -1.21351812       0.00000000
Si       1.08409950       1.22042508       1.50148188       0.00000000
Si      -1.63090050       1.22042508      -1.21351812       0.00000000
Si       2.44159950      -0.13707492      -2.57101812       0.00000000
Si       2.44159950       2.57792508       0.14398188       0.00000000
Si      -0.27340050       2.57792508      -2.57101812       0.00000000
Si       2.44159950      -2.85207492       0.14398188       0.00000000
Si       2.44159950      -0.13707492       2.85898188       0.00000000
Si      -0.27340050       2.57792508       2.85898188       0.00000000
Si      -0.06418260      -2.96430216      -2.48512638       0.00000000
