10
Lattice="16.28999089631971 0.0 0.0 0.0 16.28999089631971 0.0 0.0 0.0 34.28971787722196" Properties=species:S:1:pos:R:3:initial_magmoms:R:1 pbc="T T T"
Si      -0.93683790       2.19387923       0.18091265       0.00000000
Si      -1.88423172      -1.15136091       0.96491320       0.00000000
Si       1.62434106      -1.23139368      -1.43104789       0.00000000
Si       2.14374771       0.27655926       1.24245433       0.00000000
Si      -0.34552719      -0.00387702      -2.51484360       0.00000000
Si      -0.81560772       1.69879355       2.46526064       0.00000000
Si      -1.18910484      -0.62191962       3.11487971       0.00000000
Si      -2.71837257       0.10648710      -2.25249283       0.00000000
Si      -3.16729402       1.70516294      -0.51897517       0.00000000
Si       1.61634267      -3.34055772      -0.31032212       0.00000000
