10
Lattice="16.28999089631971 0.0 0.0 0.0 16.28999089631971 0.0 0.0 0.0 34.28971787722196" Properties=species:S:1:pos:R:3:initial_magmoms:R:1 pbc="T T T"
Si       1.35633798       1.35777150       1.35782215       0.00000000
Si      -1.36094805      -1.35329989       1.35823363       0.00000000
Si      -1.38318390       1.35835794      -1.35429374       0.00000000
Si       1.35544203      -1.33171564      -1.45807506       0.00000000
Si       2.18603655       0.69263451      -2.60166453       0.00000000
Si      -2.31862086      -0.33892974      -2.63430939       0.00000000
Si       0.31029192       2.23313094      -2.72068288       0.00000000
Si      -0.42731928      -2.09999603      -2.85972776       0.00000000
Si       2.70125667      -2.69965115      -0.00802037       0.00000000
Si       2.71194291       0.00283446       2.71641582       0.00000000
