10
Lattice="16.28999089631971 0.0 0.0 0.0 16.28999089631971 0.0 0.0 0.0 34.28971787722196" Properties=species:S:1:pos:R:3:initial_magmoms:R:1 pbc="T T T"
Si      -1.78276131      -0.76828038      -1.40165271       0.00000000
Si      -1.35544203       1.33171564       1.45807506       0.00000000
Si       1.34581464      -1.36793550       1.45005469       0.00000000
Si       0.83059452       2.02435015      -1.14358948       0.00000000
Si      -1.26201888       0.53863699      -3.43407400       0.00000000
Si      -2.58375690      -2.65636047      -0.05468184       0.00000000
Si       2.63169837      -2.73908109       0.03894285       0.00000000
Si      -2.73862593       2.69007358       0.10378132       0.00000000
Si       2.82147687       2.67551032       0.01437426       0.00000000
Si       0.00089595       2.68948714       2.81589721       0.00000000
