10
Lattice="16.28999089631971 0.0 0.0 0.0 16.28999089631971 0.0 0.0 0.0 34.28971787722196" Properties=species:S:1:pos:R:3:initial_magmoms:R:1 pbc="T T T"
Si       0.74705940       1.97995339      -1.15498121       0.00000000
Si       1.61813457      -1.80598012      -0.30229832       0.00000000
Si       1.41208236      -0.49737117       2.05165784       0.00000000
Si      -2.03695047      -0.95904673      -1.20034653       0.00000000
Si      -0.63871461      -1.71938248       2.34130325       0.00000000
Si       2.04415065       0.56189586      -2.65954629       0.00000000
Si      -0.68668866      -2.19089653      -2.67185631       0.00000000
Si       3.45041748      -0.81371336      -1.34834104       0.00000000
Si       0.47187243      -3.63897979      -1.18913379       0.00000000
Si       1.54217430       3.80278810       0.28511916       0.00000000
