10
Lattice="16.28999089631971 0.0 0.0 0.0 16.28999089631971 0.0 0.0 0.0 34.28971787722196" Properties=species:S:1:pos:R:3:initial_magmoms:R:1 pbc="T T T"
Si      -1.61872101       1.69221009       0.11271037       0.00000000
Si       2.04520950       1.10207226       0.41157971       0.00000000
Si      -0.39519540      -1.42793483       1.89289635       0.00000000
Si      -0.24698898      -1.38870851      -1.94968016       0.00000000
Si       3.37481559      -0.27661723      -0.88433232       0.00000000
Si      -1.29801978      -3.20603720      -0.93665846       0.00000000
Si       1.16887266      -3.12830132       1.42988203       0.00000000
Si      -1.16012493       0.05600176      -3.55190241       0.00000000
Si      -1.52852328       2.37122616       2.45456225       0.00000000
Si       2.42652582       0.88471479       2.70923212       0.00000000
