10
Lattice="16.28999089631971 0.0 0.0 0.0 16.28999089631971 0.0 0.0 0.0 34.28971787722196" Properties=species:S:1:pos:R:3:initial_magmoms:R:1 pbc="T T T"
Si       0.38159325      -1.45171986       1.85877807       0.00000000
Si       0.91196307       2.10333548       0.74833922       0.00000000
Si       1.54976544      -0.31536204      -1.85730361       0.00000000
Si      -2.14374771      -0.27655926      -1.24245433       0.00000000
Si       2.84275161       0.54223546       0.08459278       0.00000000
Si      -0.51940665      -1.50795294      -2.67350222       0.00000000
Si      -1.02579759       2.22168233       2.22941583       0.00000000
Si      -2.95935543       1.42223429       1.22280631       0.00000000
Si       0.11401371      -3.49767870       0.74583607       0.00000000
Si       0.41643756       3.48379895      -1.29563771       0.00000000
