10
Lattice="16.28999089631971 0.0 0.0 0.0 16.28999089631971 0.0 0.0 0.0 34.28971787722196" Properties=species:S:1:pos:R:3:initial_magmoms:R:1 pbc="T T T"
Si       1.35560493      -1.35493704       1.35859367       0.00000000
Si      -1.35633798      -1.35777150      -1.35782215       0.00000000
Si      -1.35847197       1.35961227       1.35900515       0.00000000
Si       1.37552760       1.36360332      -1.38346059       0.00000000
Si       2.71552671      -2.71033509       0.00126872       0.00000000
Si       2.71091664       2.71696023       0.00133730       0.00000000
Si      -2.71728603      -2.71107139       0.00041148       0.00000000
Si      -0.00047241      -2.71269877       2.71633010       0.00000000
Si       2.71495656       0.00197109       2.71602149       0.00000000
Si      -2.71546155       0.00223173       2.71646726       0.00000000
