10
Lattice="16.28999089631971 0.0 0.0 0.0 16.28999089631971 0.0 0.0 0.0 34.28971787722196" Properties=species:S:1:pos:R:3:initial_magmoms:R:1 pbc="T T T"
Si      -1.59065334      -1.13775876      -1.25349323       0.00000000
Si       1.31180112      -1.34037378       1.40792974       0.00000000
Si       1.80028935       0.87729795      -1.22469499       0.00000000
Si      -1.39556430       1.40033727       1.38344001       0.00000000
Si       0.91970082       1.20244635      -3.32905482       0.00000000
Si       2.59085934      -2.73826755      -0.04134656       0.00000000
Si       2.63911032       2.69834076       0.02253522       0.00000000
Si       2.67794568       0.03570768       2.77079592       0.00000000
Si      -0.03785796      -2.67895566       2.77254469       0.00000000
Si      -2.81670064      -2.64236832       0.01824557       0.00000000
