10
Lattice="16.28999089631971 0.0 0.0 0.0 16.28999089631971 0.0 0.0 0.0 34.28971787722196" Properties=species:S:1:pos:R:3:initial_magmoms:R:1 pbc="T T T"
Si       0.23452713       1.81358199       1.49846151       0.00000000
Si       2.33851095      -0.44038386      -0.24702327       0.00000000
Si      -1.06531713       1.23085611      -1.76232104       0.00000000
Si      -1.54378701      -1.54018692       1.06599935       0.00000000
Si      -2.48622867       2.73914721      -0.52878203       0.00000000
Si       2.98406736      -1.38730527       1.85726932       0.00000000
Si      -2.10036744      -0.51152229       3.12588672       0.00000000
Si       2.48031540      -2.13809508      -1.95324629       0.00000000
Si       1.84787244       3.29119902       0.65195077       0.00000000
Si      -1.84480992       2.85858549       1.76983049       0.00000000
