10
Lattice="16.28999089631971 0.0 0.0 0.0 16.28999089631971 0.0 0.0 0.0 34.28971787722196" Properties=species:S:1:pos:R:3:initial_magmoms:R:1 pbc="T T T"
Si      -1.35474156       1.35788553       1.36041103       0.00000000
Si       1.36181142      -1.35866745       1.35883370       0.00000000
Si      -1.35237951      -1.35027810      -1.38639579       0.00000000
Si       1.36114353       1.36425492      -1.37286163       0.00000000
Si      -2.71068858      -2.71360449      -0.00216025       0.00000000
Si      -2.71153729       2.71485882       0.00284605       0.00000000
Si      -2.71157150      -0.00029322       2.71715305       0.00000000
Si       2.68229511      -0.05227461      -2.74730059       0.00000000
Si       0.00322542       2.71480995       2.71691302       0.00000000
Si       2.71868697       2.71357191      -0.00041148       0.00000000
