10
Lattice="16.28999089631971 0.0 0.0 0.0 16.28999089631971 0.0 0.0 0.0 34.28971787722196" Properties=species:S:1:pos:R:3:initial_magmoms:R:1 pbc="T T T"
Si       1.35878148      -1.35705474       1.35965665       0.00000000
Si      -1.35940050       1.35883396       1.35993097       0.00000000
Si      -1.35754344      -1.34931699      -1.37245015       0.00000000
Si       1.34540739       1.37121075      -1.36450522       0.00000000
Si       2.63129112       0.00006516      -2.77561705       0.00000000
Si       0.00035838      -2.71423980       2.71756453       0.00000000
Si      -2.71868697      -2.71357191       0.00041148       0.00000000
Si      -2.71546155       0.00123804       2.71732450       0.00000000
Si       2.71505430       0.00138465       2.71821603       0.00000000
Si       0.00001629       2.71593463       2.71766740       0.00000000
