10
Lattice="16.28999089631971 0.0 0.0 0.0 16.28999089631971 0.0 0.0 0.0 34.28971787722196" Properties=species:S:1:pos:R:3:initial_magmoms:R:1 pbc="T T T"
Si       0.12123018      -0.49508568       2.28434799       0.00000000
Si      -2.23045612      -0.48871629      -0.69988782       0.00000000
Si       0.93683790      -2.19387923      -0.18091265       0.00000000
Si       1.13257854       2.12310828      -0.32859855       0.00000000
Si       0.59131071      -2.19775625      -2.69575626       0.00000000
Si      -0.94739382      -3.34524014       0.78400055       0.00000000
Si       1.36521603      -0.05095512      -3.37897927       0.00000000
Si      -1.78153467      -2.08739213      -2.43340548       0.00000000
Si      -0.19811898       2.94140385      -2.24693789       0.00000000
Si      -2.98402568      -2.02741626       0.89156745       0.00000000
