10
Lattice="16.28999089631971 0.0 0.0 0.0 16.28999089631971 0.0 0.0 0.0 34.28971787722196" Properties=species:S:1:pos:R:3:initial_magmoms:R:1 pbc="T T T"
Si       2.07933705      -1.04500350      -0.27136898       0.00000000
Si       0.26757954       2.04595884       1.11294200       0.00000000
Si      -1.26780183      -1.20889719       1.57729361       0.00000000
Si      -0.64141875      -0.11943828      -2.29861252       0.00000000
Si      -0.11401371       3.49767870      -0.74583607       0.00000000
Si      -0.25555752      -3.37010778       1.35605623       0.00000000
Si      -1.60635690       2.10727440       2.52427328       0.00000000
Si      -2.70673011      -1.16683641      -2.23538225       0.00000000
Si       2.26528740       1.77406245       2.43909758       0.00000000
Si       1.84480992      -2.85858549      -1.76983049       0.00000000
