10
Lattice="16.28999089631971 0.0 0.0 0.0 16.28999089631971 0.0 0.0 0.0 34.28971787722196" Properties=species:S:1:pos:R:3:initial_magmoms:R:1 pbc="T T T"
Si       1.35586557       1.35695170       1.35612481       0.00000000
Si       1.35734796      -1.35751520      -1.35715350       0.00000000
Si      -1.35769005       1.35703478      -1.35770214       0.00000000
Si      -1.35819504      -1.35876953       1.35670774       0.00000000
Si       0.00146610      -2.71240337       2.71667300       0.00000000
Si       2.71463076       2.71464990      -0.00013716       0.00000000
Si       2.71453302      -2.71496090      -0.00041148       0.00000000
Si       2.71508688      -0.00172368      -2.71451274       0.00000000
Si      -2.71518462       2.71500828      -0.00048006       0.00000000
Si      -0.00161271       2.71479651      -2.71543857       0.00000000
