10
Lattice="16.28999089631971 0.0 0.0 0.0 16.28999089631971 0.0 0.0 0.0 34.28971787722196" Properties=species:S:1:pos:R:3:initial_magmoms:R:1 pbc="T T T"
Si       1.52873505       1.45505212      -1.12556062       0.00000000
Si       1.01656116      -1.86433578       1.25462719       0.00000000
Si      -1.29298617      -0.85759749      -1.94189639       0.00000000
Si      -1.93078854       1.56110002       0.66374644       0.00000000
Si      -2.84275161      -0.54223546      -0.08459278       0.00000000
Si       0.27108189      -2.55796398      -2.40491071       0.00000000
Si      -0.63990378       2.45582827       2.56998150       0.00000000
Si      -2.46115836      -1.99395531       1.77418528       0.00000000
Si       1.64776608       2.66896663       1.96058429       0.00000000
Si       0.96394446      -3.60730062      -0.45663643       0.00000000
