10
Lattice="16.28999089631971 0.0 0.0 0.0 16.28999089631971 0.0 0.0 0.0 34.28971787722196" Properties=species:S:1:pos:R:3:initial_magmoms:R:1 pbc="T T T"
Si       0.86817555       1.42405551       1.64117539       0.00000000
Si      -2.28766986      -0.21313836       0.60939721       0.00000000
Si      -0.28191474       0.93234186      -2.20047530       0.00000000
Si       1.65369564      -1.80502974      -0.13410716       0.00000000
Si      -0.11903103      -1.21391451      -3.08614491       0.00000000
Si       2.09214099      -1.63082448      -2.44190933       0.00000000
Si      -1.64776608      -2.66896663      -1.96058429       0.00000000
Si      -0.53118432       3.25672938       1.84581654       0.00000000
Si       0.47122083       0.35368848       3.81140714       0.00000000
Si       2.79622737       2.60490132       0.81201526       0.00000000
