10
Lattice="16.28999089631971 0.0 0.0 0.0 16.28999089631971 0.0 0.0 0.0 34.28971787722196" Properties=species:S:1:pos:R:3:initial_magmoms:R:1 pbc="T T T"
Si      -0.26389800      -2.26239497       0.57877647       0.00000000
Si       0.43844535       0.17420526      -2.30780217       0.00000000
Si       2.01267837       0.67743594       1.02601751       0.00000000
Si      -1.65369564       1.80502974       0.13410716       0.00000000
Si      -1.77272667       0.59111523      -2.95203775       0.00000000
Si      -1.01364525      -2.01364667       2.76409570       0.00000000
Si      -2.28490056      -2.72827268      -0.57184994       0.00000000
Si       2.40220485       2.70073539      -0.14075937       0.00000000
Si       1.71870903       2.17860831      -2.42754193       0.00000000
Si      -0.78552009       3.22908525       1.77528256       0.00000000
