10
Lattice="16.28999089631971 0.0 0.0 0.0 16.28999089631971 0.0 0.0 0.0 34.28971787722196" Properties=species:S:1:pos:R:3:initial_magmoms:R:1 pbc="T T T"
Si      -2.30286843       0.24319341       0.19257116       0.00000000
Si       0.60690024      -2.32332541       0.15293223       0.00000000
Si       0.39695472       1.07036703      -2.17023175       0.00000000
Si       0.80850528       1.11026124       2.06040172       0.00000000
Si       2.90424636      -1.62797373      -0.25720732       0.00000000
Si       2.52390744      -0.69823827       2.13539337       0.00000000
Si       1.28361942       3.15726264       0.61838112       0.00000000
Si      -1.13195952       0.23644935       3.44299619       0.00000000
Si      -1.00240515       2.90304090      -1.96559060       0.00000000
Si      -3.11893227      -1.60826283      -1.02930933       0.00000000
