10
Lattice="16.28999089631971 0.0 0.0 0.0 16.28999089631971 0.0 0.0 0.0 34.28971787722196" Properties=species:S:1:pos:R:3:initial_magmoms:R:1 pbc="T T T"
Si       1.35808101       1.35594702       1.35855938       0.00000000
Si      -1.36081773       1.35545832      -1.35646771       0.00000000
Si      -1.35677781      -1.35953082       1.35821648       0.00000000
Si       1.35733167      -1.36014984      -1.36047961       0.00000000
Si      -2.71399545       2.71363707       0.00075437       0.00000000
Si       2.71531494       2.71274112       0.00072008       0.00000000
Si       0.00050499       2.71303434       2.71554144       0.00000000
Si      -2.71507059      -0.00180819       2.71564430       0.00000000
Si       2.71542897      -0.00136836       2.71588433       0.00000000
Si       2.71472850      -2.71762812       0.00058293       0.00000000
