10
Lattice="16.28999089631971 0.0 0.0 0.0 16.28999089631971 0.0 0.0 0.0 34.28971787722196" Properties=species:S:1:pos:R:3:initial_magmoms:R:1 pbc="T T T"
Si       1.36637262       1.26830682      -1.39178614       0.00000000
Si      -1.15624791       1.45341009       1.43043067       0.00000000
Si       1.43879796      -1.16499564       1.51210882       0.00000000
Si      -1.51899363      -1.46697966      -1.20308971       0.00000000
Si       0.79863354       3.01418757       1.47569312       0.00000000
Si      -1.70284257      -0.14608872       3.09938075       0.00000000
Si      -0.17384688       2.50681923      -2.72353094       0.00000000
Si       2.28480282      -2.94490620       0.12649484       0.00000000
Si       3.03707502       2.18116584       0.00075437       0.00000000
Si       2.54637135      -0.22924917      -2.75219716       0.00000000
