10
Lattice="16.28999089631971 0.0 0.0 0.0 16.28999089631971 0.0 0.0 0.0 34.28971787722196" Properties=species:S:1:pos:R:3:initial_magmoms:R:1 pbc="T T T"
Si      -0.50494113       1.64226006      -1.57283595       0.00000000
Si       0.16848747       1.32533811       1.91120707       0.00000000
Si       1.78567722      -1.13847552      -1.07213721       0.00000000
Si      -2.19043485      -0.80756046       0.49548670       0.00000000
Si       0.55063458      -1.67031144      -2.97439466       0.00000000
Si      -1.96214679       0.38758797      -2.89751707       0.00000000
Si      -1.79804133       2.61817767       1.76365833       0.00000000
Si      -2.03116752       3.10114359      -0.54856721       0.00000000
Si       3.47032386       0.50660271      -1.36678892       0.00000000
Si      -3.37092228      -0.97627599      -1.54550703       0.00000000
