10
Lattice="16.28999089631971 0.0 0.0 0.0 16.28999089631971 0.0 0.0 0.0 34.28971787722196" Properties=species:S:1:pos:R:3:initial_magmoms:R:1 pbc="T T T"
Si      -1.39935987       1.83267387       0.20464115       0.00000000
Si      -0.86817555      -1.42405551      -1.64117539       0.00000000
Si       1.92805182       1.18084581      -0.82916013       0.00000000
Si      -0.39695472      -1.07036703       2.17023175       0.00000000
Si       0.88666470       2.08689561       2.78861286       0.00000000
Si      -2.69982315      -0.82717362       2.36280291       0.00000000
Si      -3.15584541      -1.63719387      -1.03177819       0.00000000
Si       3.18772494      -0.52834986      -1.91604193       0.00000000
Si       0.78552009      -3.22908525      -1.77528256       0.00000000
Si       2.72176578       2.35861281       1.15539269       0.00000000
