10
Lattice="16.28999089631971 0.0 0.0 0.0 16.28999089631971 0.0 0.0 0.0 34.28971787722196" Properties=species:S:1:pos:R:3:initial_magmoms:R:1 pbc="T T T"
Si       1.46587194      -1.40235723       1.10577544       0.00000000
Si      -2.34303957       0.13655907       0.22404914       0.00000000
Si       1.18633554       1.88874405      -0.78245751       0.00000000
Si      -0.82015263      -1.65657897      -1.47819627       0.00000000
Si       3.30097302      -1.13064003      -0.52744474       0.00000000
Si      -2.82646161      -2.27335095      -0.46843210       0.00000000
Si       3.47512941       1.18974015      -0.59983037       0.00000000
Si      -2.78749593       1.04686056      -2.31675179       0.00000000
Si       0.06778269       3.78978705       0.36257968       0.00000000
Si      -1.57488462      -0.63653175      -3.42533899       0.00000000
