10
Lattice="16.28999089631971 0.0 0.0 0.0 16.28999089631971 0.0 0.0 0.0 34.28971787722196" Properties=species:S:1:pos:R:3:initial_magmoms:R:1 pbc="T T T"
Si       1.35283563      -1.35283563       1.35965665       0.00000000
Si      -1.35767376      -1.35632169      -1.35619339       0.00000000
Si       1.35711990       1.35892809      -1.35629626       0.00000000
Si      -1.35594702       1.36148562       1.36078821       0.00000000
Si       0.00843822       2.68754049       2.72483395       0.00000000
Si       2.69436600       0.00720018       2.72329092       0.00000000
Si      -0.00027693      -2.71336014      -2.71351834       0.00000000
Si       2.71370223      -2.71461447       0.00202309       0.00000000
Si       2.71441899       0.00102627      -2.71396411       0.00000000
Si      -2.71476108       0.00074934      -2.71368979       0.00000000
