10
Lattice="16.28999089631971 0.0 0.0 0.0 16.28999089631971 0.0 0.0 0.0 34.28971787722196" Properties=species:S:1:pos:R:3:initial_magmoms:R:1 pbc="T T T"
Si       1.96137206      -0.65401159      -1.04892001       0.00000000
Si       1.56696509       1.24404612       1.24769140       0.00000000
Si      -1.26775296      -1.56507871       1.23306683       0.00000000
Si      -1.23885450       0.13987408      -2.03632728       0.00000000
Si       0.93906704       0.08617410      -2.99733145       0.00000000
Si      -2.52003042      -0.10075665       2.62831280       0.00000000
Si       0.20124666       2.63305696       2.61698690       0.00000000
Si      -2.02932675      -2.13004849      -2.48048224       0.00000000
Si      -1.96739217      -3.29952388      -0.26512520       0.00000000
Si       0.19826559      -2.80227163       2.63837684       0.00000000
