10
Lattice="16.28999089631971 0.0 0.0 0.0 16.28999089631971 0.0 0.0 0.0 34.28971787722196" Properties=species:S:1:pos:R:3:initial_magmoms:R:1 pbc="T T T"
Si      -1.35311256      -1.35387586       1.37180894       0.00000000
Si       1.36580247       1.35864438       1.36642545       0.00000000
Si       1.25227746      -1.46432206      -1.39524597       0.00000000
Si      -1.31509170       1.38463671      -1.44315902       0.00000000
Si       2.52003042       0.10075665      -2.62831280       0.00000000
Si      -2.69667918      -2.70596215      -0.01308153       0.00000000
Si      -2.70720252       2.69558097       0.00517432       0.00000000
Si       2.71829601      -2.70151498       0.01006404       0.00000000
Si      -2.70744687       0.00129663       2.73036832       0.00000000
Si       0.00716760      -2.71104463       2.72913389       0.00000000
