10
Lattice="16.28999089631971 0.0 0.0 0.0 16.28999089631971 0.0 0.0 0.0 34.28971787722196" Properties=species:S:1:pos:R:3:initial_magmoms:R:1 pbc="T T T"
Si       1.01178819       1.73945272      -1.29511792       0.00000000
Si       1.31509170      -1.38463671       1.44315902       0.00000000
Si      -1.39211082       1.31094427       1.44833334       0.00000000
Si      -1.20606273      -1.53979663      -1.47733358       0.00000000
Si      -0.90521901       0.11436557      -3.27757907       0.00000000
Si      -2.64407877       2.67414034       0.01248489       0.00000000
Si       2.56736916      -2.84895877       0.04791305       0.00000000
Si      -0.70361397       3.54795223      -1.37010958       0.00000000
Si       2.68089417      -0.02599232       2.80958447       0.00000000
Si      -0.03559365       2.68946923       2.81133324       0.00000000
