10
Lattice="16.28999089631971 0.0 0.0 0.0 16.28999089631971 0.0 0.0 0.0 34.28971787722196" Properties=species:S:1:pos:R:3:initial_magmoms:R:1 pbc="T T T"
Si      -1.35746199      -1.35660025       1.35770214       0.00000000
Si       1.35834165       1.35884664       1.35749640       0.00000000
Si      -1.35739683       1.35747828      -1.36106253       0.00000000
Si       1.35909099      -1.35798327      -1.36281131       0.00000000
Si      -2.71415835      -2.71533102       0.00113156       0.00000000
Si       0.00047241      -2.71419051       2.71543857       0.00000000
Si      -2.71461447       0.00104256       2.71550715       0.00000000
Si       2.71550548       0.00114030       2.71554144       0.00000000
Si       0.00070047       2.71625976       2.71530141       0.00000000
Si       2.71748306      -2.71418886       0.00089153       0.00000000
