10
Lattice="16.28999089631971 0.0 0.0 0.0 16.28999089631971 0.0 0.0 0.0 34.28971787722196" Properties=species:S:1:pos:R:3:initial_magmoms:R:1 pbc="T T T"
Si      -1.34684091      -1.34907046      -1.39699818       0.00000000
Si       1.36619343       1.36723599      -1.39442645       0.00000000
Si      -1.57345110       1.16584272       1.49050629       0.00000000
Si       1.18991934      -1.51904969       1.57633350       0.00000000
Si       2.71689507      -2.70667214      -0.00634360       0.00000000
Si      -2.69943219      -2.73596156      -0.03343249       0.00000000
Si       2.71995759       2.71806795       0.00586355       0.00000000
Si      -2.72534958       2.71770957      -0.00414906       0.00000000
Si       0.00540828      -2.70825227      -2.75768352       0.00000000
Si      -2.70941796       0.00733864      -2.75802642       0.00000000
