10
Lattice="16.28999089631971 0.0 0.0 0.0 16.28999089631971 0.0 0.0 0.0 34.28971787722196" Properties=species:S:1:pos:R:3:initial_magmoms:R:1 pbc="T T T"
Si      -1.68464664      -1.64507823       0.29465171       0.00000000
Si       2.05174083      -1.12793589      -0.60785417       0.00000000
Si       0.19763028       1.21692816       2.10370966       0.00000000
Si      -0.59075685       1.59050673      -2.76550158       0.00000000
Si       1.89958409       2.66923053       1.37038934       0.00000000
Si      -0.77341662      -3.23864748       1.74064992       0.00000000
Si      -3.47032386      -0.50660271       1.36678892       0.00000000
Si       1.12171541      -0.45444213       3.59689055       0.00000000
Si      -2.91968928      -2.17691415      -1.60760574       0.00000000
Si       3.94839368       0.28194732      -0.63528596       0.00000000
