10
Lattice="16.28999089631971 0.0 0.0 0.0 16.28999089631971 0.0 0.0 0.0 34.28971787722196" Properties=species:S:1:pos:R:3:initial_magmoms:R:1 pbc="T T T"
Si      -1.33398810       1.38292326       1.35114594       0.00000000
Si       1.38473145      -1.31779584       1.36947038       0.00000000
Si      -1.44920727      -1.24335054      -1.42222655       0.00000000
Si       0.83256561       1.80882531      -1.31707463       0.00000000
Si       1.10890917       0.32659821      -3.12862102       0.00000000
Si       0.39369672      -2.02911498      -2.66310355       0.00000000
Si      -2.56640805      -2.61335583       0.06323370       0.00000000
Si       2.68479792      -2.63940354      -0.03533900       0.00000000
Si      -2.61972522       2.71656927      -0.15784938       0.00000000
Si       0.02987586      -2.67832035       2.71995452       0.00000000
