10
Lattice="16.28999089631971 0.0 0.0 0.0 16.28999089631971 0.0 0.0 0.0 34.28971787722196" Properties=species:S:1:pos:R:3:initial_magmoms:R:1 pbc="T T T"
Si       1.28573712      -1.33364601       1.50899532       0.00000000
Si      -2.02688325      -0.67300506      -1.08600535       0.00000000
Si       1.83961341       0.90769509      -1.38926039       0.00000000
Si      -1.40970402       1.40050017       1.49109607       0.00000000
Si       2.53925262       2.64214026       0.10893164       0.00000000
Si       3.45229083      -0.90774396      -1.15922525       0.00000000
Si       2.61972522      -2.71656927       0.15784938       0.00000000
Si      -0.55814427       2.16500616      -3.07909293       0.00000000
Si      -1.65470562      -0.01179396      -3.49430735       0.00000000
Si      -2.85602796      -2.64324798       0.11607762       0.00000000
