10
Lattice="16.28999089631971 0.0 0.0 0.0 16.28999089631971 0.0 0.0 0.0 34.28971787722196" Properties=species:S:1:pos:R:3:initial_magmoms:R:1 pbc="T T T"
Si       1.35680623       1.35645201       1.35677632       0.00000000
Si      -1.35814123      -1.35823576       1.35633055       0.00000000
Si      -1.35716383       1.35770634      -1.35804504       0.00000000
Si       1.35804264      -1.35771937      -1.35804504       0.00000000
Si      -2.71480501       2.71511946      -0.00024003       0.00000000
Si       0.00197758      -2.71532916      -2.71464990       0.00000000
Si       2.71566916       2.71464705       0.00010287       0.00000000
Si      -2.71503307      -2.71533081      -0.00010287       0.00000000
Si       2.71513159      -2.71541642      -0.00037719       0.00000000
Si      -2.71550548      -0.00114030      -2.71554144       0.00000000
