10
Lattice="16.28999089631971 0.0 0.0 0.0 16.28999089631971 0.0 0.0 0.0 34.28971787722196" Properties=species:S:1:pos:R:3:initial_magmoms:R:1 pbc="T T T"
Si      -1.80695196       1.44031293       0.22192318       0.00000000
Si       1.70233758       1.01413395      -1.23953970       0.00000000
Si       0.92266560      -0.55555416       2.08951371       0.00000000
Si      -0.30817422      -2.03281281      -1.20233534       0.00000000
Si       1.86189813      -2.63917548      -0.71281505       0.00000000
Si      -3.09757608       0.04934241       1.59090664       0.00000000
Si       2.72237407      -0.94687254      -2.07504344       0.00000000
Si       2.46711140      -2.18429352       1.48388837       0.00000000
Si       2.30621181       1.28741499       2.50263646       0.00000000
Si       0.58762917       2.53483803      -2.65591158       0.00000000
