10
Lattice="16.28999089631971 0.0 0.0 0.0 16.28999089631971 0.0 0.0 0.0 34.28971787722196" Properties=species:S:1:pos:R:3:initial_magmoms:R:1 pbc="T T T"
Si       1.80695196      -1.44031293      -0.22192318       0.00000000
Si      -1.29062412      -1.39097052       1.36898346       0.00000000
Si      -1.19177640      -0.10357182      -2.06756827       0.00000000
Si       0.89577081       2.13873039       0.67111873       0.00000000
Si      -2.87528274       1.45559295      -1.29886095       0.00000000
Si      -1.73908782      -3.22291134      -0.09354240       0.00000000
Si       1.74879666       2.89790955      -1.48529425       0.00000000
Si       3.50928954      -0.42617898      -1.46146288       0.00000000
Si       2.72961756      -1.99586709       1.86759053       0.00000000
Si       2.39458113       1.09452510      -2.87783476       0.00000000
