10
Lattice="16.28999089631971 0.0 0.0 0.0 16.28999089631971 0.0 0.0 0.0 34.28971787722196" Properties=species:S:1:pos:R:3:initial_magmoms:R:1 pbc="T T T"
Si      -1.35433431       1.35517250       1.35855938       0.00000000
Si       1.36028016      -1.35716877       1.35732495       0.00000000
Si       1.35311256       1.35387586      -1.37180894       0.00000000
Si      -1.34356662      -1.35208629      -1.38489047       0.00000000
Si       2.60539002      -0.11044620      -2.76705491       0.00000000
Si      -2.71111212       2.71629464       0.00030861       0.00000000
Si      -2.70892926      -2.71847520      -0.00017145       0.00000000
Si      -2.71207323      -0.00061902       2.71591862       0.00000000
Si       0.00236205       2.71390327       2.71512996       0.00000000
Si       0.00241092      -2.71596654       2.71499280       0.00000000
