10
Lattice="16.28999089631971 0.0 0.0 0.0 16.28999089631971 0.0 0.0 0.0 34.28971787722196" Properties=species:S:1:pos:R:3:initial_magmoms:R:1 pbc="T T T"
Si      -1.35785295      -1.35602847      -1.35756498       0.00000000
Si       1.35712786      -1.35744570       1.35746211       0.00000000
Si       1.35917399       1.35745495      -1.35657058       0.00000000
Si      -1.35783666       1.35745331       1.35797646       0.00000000
Si       2.71450600       0.00042354      -2.71392982       0.00000000
Si       2.71274505      -0.00252495       2.71615865       0.00000000
Si      -0.00094482       2.71454835       2.71440987       0.00000000
Si       2.71447179      -2.71472850       0.00037719       0.00000000
Si       2.71523905       2.71506474       0.00003429       0.00000000
Si      -2.71572219      -2.71482624       0.00010287       0.00000000
