10
Lattice="16.28999089631971 0.0 0.0 0.0 16.28999089631971 0.0 0.0 0.0 34.28971787722196" Properties=species:S:1:pos:R:3:initial_magmoms:R:1 pbc="T T T"
Si      -1.46877156       1.36697439      -1.24811214       0.00000000
Si       0.64578447      -1.80338445      -1.39254051       0.00000000
Si       1.79460414       1.51265228       0.38850272       0.00000000
Si      -0.85302585      -0.75917916       2.15641298       0.00000000
Si      -1.74879666      -2.89790955       1.48529425       0.00000000
Si      -1.84811679       3.20312618       0.16174469       0.00000000
Si       2.43467149      -0.92131353      -2.70693471       0.00000000
Si       1.76049288      -3.32408853       0.02383137       0.00000000
Si      -1.40945967      -2.58667281      -2.42908497       0.00000000
Si       1.50666210       2.45623456       2.54628729       0.00000000
