10
Lattice="16.28999089631971 0.0 0.0 0.0 16.28999089631971 0.0 0.0 0.0 34.28971787722196" Properties=species:S:1:pos:R:3:initial_magmoms:R:1 pbc="T T T"
Si       0.82262382       1.58684148       1.47802483       0.00000000
Si      -2.29166158      -0.41117589       0.05119458       0.00000000
Si       0.78410612      -2.11250349       0.67094728       0.00000000
Si       0.59852392       1.16903556      -2.01249896       0.00000000
Si       3.04659490       1.46101752       0.65033915       0.00000000
Si      -0.48725086       3.17176074      -1.72703690       0.00000000
Si       0.11796241       3.62664270       0.46966653       0.00000000
Si       2.95520800       1.39188276      -1.77312230       0.00000000
Si      -0.90064219      -3.68459763       0.26869438       0.00000000
Si      -2.68118806      -2.43447534       1.21797146       0.00000000
