10
Lattice="16.28999089631971 0.0 0.0 0.0 16.28999089631971 0.0 0.0 0.0 34.28971787722196" Properties=species:S:1:pos:R:3:initial_magmoms:R:1 pbc="T T T"
Si       1.42384374       0.14862996       1.85394321       0.00000000
Si      -1.68827442      -1.63852965       0.21023038       0.00000000
Si      -0.95393588       2.16435456       0.25864749       0.00000000
Si       1.66203612      -0.09053982      -1.97189991       0.00000000
Si       2.54604555       2.01005568       0.97276555       0.00000000
Si      -0.23179041       0.60875730       3.45698842       0.00000000
Si      -2.13481602      -1.99966266      -2.16344238       0.00000000
Si      -1.79953187       2.42924625      -2.12764389       0.00000000
Si      -3.55073849      -0.26277399       1.10268936       0.00000000
Si      -1.04666508      -2.93630508       2.11838566       0.00000000
