10
Lattice="10.86 0.0 0.0 0.0 10.86 0.0 0.0 0.0 10.86" Properties=species:S:1:pos:R:3:initial_magmoms:R:1 pbc="T T T"
Si      -1.42452792      -1.30713132       1.28990736       0.00000000
Si       1.29047208      -1.30713132      -1.42509264       0.00000000
Si      -1.42452792       1.40786868      -1.42509264       0.00000000
Si      -0.21307320       2.33490000       2.24017908       0.00000000
Si      -0.06702792      -2.66463132       2.64740736       0.00000000
Si       2.64797208      -2.66463132      -0.06759264       0.00000000
Si       2.76382656       0.10767690       2.64886260       0.00000000
Si       2.64797208       0.05036868      -2.78259264       0.00000000
Si      -2.78202792      -2.66463132      -0.06759264       0.00000000
Si      -0.06702792      -2.66463132      -2.78259264       0.00000000
