10
Lattice="10.86 0.0 0.0 0.0 10.86 0.0 0.0 0.0 10.86" Properties=species:S:1:pos:R:3:initial_magmoms:R:1 pbc="T T T"
Si       1.19084244      -1.19084244      -1.43485578       0.00000000
Si      -1.37670048       1.37670048      -1.27093494       0.00000000
Si       2.57699112      -2.57699112      -0.03405696       0.00000000
Si       2.57699112       0.13800888       2.68094304       0.00000000
Si      -0.13800888      -2.57699112       2.68094304       0.00000000
Si       2.57699112       0.13800888      -2.74905696       0.00000000
Si      -0.13800888      -2.57699112      -2.74905696       0.00000000
Si       2.57699112       2.85300888      -0.03405696       0.00000000
Si      -2.85300888      -2.57699112      -0.03405696       0.00000000
Si      -0.13800888       2.85300888       2.68094304       0.00000000
