10
Lattice="10.86 0.0 0.0 0.0 10.86 0.0 0.0 0.0 10.86" Properties=species:S:1:pos:R:3:initial_magmoms:R:1 pbc="T T T"
Si      -1.08148224       0.91193592       1.74850344       0.00000000
Si       1.93589274       0.88146276      -1.09230966       0.00000000
Si      -0.94634040      -1.98241698      -1.08831318       0.00000000
Si      -2.23519434       2.34072096       0.21463704       0.00000000
Si      -2.23519434      -0.37427904      -2.50036296       0.00000000
Si       0.47980566       2.34072096      -2.50036296       0.00000000
Si      -2.23519434      -0.37427904       2.92963704       0.00000000
Si       0.47980566       2.34072096       2.92963704       0.00000000
Si      -2.23519434      -3.08927904       0.21463704       0.00000000
Si      -3.59269434       0.98322096      -1.14286296       0.00000000
