10
Lattice="10.86 0.0 0.0 0.0 10.86 0.0 0.0 0.0 10.86" Properties=species:S:1:pos:R:3:initial_magmoms:R:1 pbc="T T T"
Si      -1.28132796      -1.21517970       1.27275942       0.00000000
Si       1.43367204       1.49982030       1.27275942       0.00000000
Si      -1.28132796       1.49982030      -1.44224058       0.00000000
Si       0.07617204      -2.57267970       2.63025942       0.00000000
Si      -2.55605304      -2.63460342      -0.30232068       0.00000000
Si      -2.63882796       0.14232030       2.63025942       0.00000000
Si       2.79117204       0.14232030       2.63025942       0.00000000
Si      -2.84261586       0.07103526      -2.62337418       0.00000000
Si       0.07617204       2.85732030       2.63025942       0.00000000
Si      -2.63882796       2.85732030      -0.08474058       0.00000000
