10
Lattice="10.86 0.0 0.0 0.0 10.86 0.0 0.0 0.0 10.86" Properties=species:S:1:pos:R:3:initial_magmoms:R:1 pbc="T T T"
Si      -1.79784042       0.78057336      -0.84373512       0.00000000
Si       0.91715958       0.78057336       1.87126488       0.00000000
Si       0.91715958      -1.93442664      -0.84373512       0.00000000
Si      -0.44034042       2.13807336      -2.20123512       0.00000000
Si       2.27465958       2.13807336       0.51376488       0.00000000
Si       2.27465958      -0.57692664      -2.20123512       0.00000000
Si       0.91715958       3.49557336      -0.84373512       0.00000000
Si       0.91715958       0.78057336      -3.55873512       0.00000000
Si       3.63215958       0.78057336      -0.84373512       0.00000000
Si      -3.15534042      -0.57692664      -2.20123512       0.00000000
