10
Lattice="10.86 0.0 0.0 0.0 10.86 0.0 0.0 0.0 10.86" Properties=species:S:1:pos:R:3:initial_magmoms:R:1 pbc="T T T"
Si      -0.23711724      -1.65330468      -1.46888016       0.00000000
Si      -0.93480708       2.12713734      -0.05065104       0.00000000
Si      -0.55542384       0.24862884       2.61520746       0.00000000
Si      -2.47013958       1.11476814      -1.37110758       0.00000000
Si       2.34252372      -1.75364022       1.02984294       0.00000000
Si      -1.25434086      -0.42911118      -2.91627924       0.00000000
Si      -1.25434086      -3.14411118      -0.20127924       0.00000000
Si       1.46065914       2.28588882      -2.91627924       0.00000000
Si       0.06458442       3.72627234      -1.41265794       0.00000000
Si      -3.96934086      -0.42911118      -0.20127924       0.00000000
