10
Lattice="10.86 0.0 0.0 0.0 10.86 0.0 0.0 0.0 10.86" Properties=species:S:1:pos:R:3:initial_magmoms:R:1 pbc="T T T"
Si       1.35750000       1.35750000       1.35750000       0.00000000
Si       1.35750000      -1.35750000      -1.35750000       0.00000000
Si      -1.35750000      -1.35750000       1.35750000       0.00000000
Si      -1.35750000       1.35750000      -1.35750000       0.00000000
Si      -2.52943518       2.68208334      -0.08373060       0.00000000
Si      -2.70090372      -2.59836360      -0.17523696       0.00000000
Si       0.01777782      -2.73556884       2.59094622       0.00000000
Si       0.11613684      -2.79498390      -2.58825294       0.00000000
Si      -0.15476586       2.61909534      -2.77120050       0.00000000
Si       2.52692652      -2.87257860       0.14119086       0.00000000
