10
Lattice="10.86 0.0 0.0 0.0 10.86 0.0 0.0 0.0 10.86" Properties=species:S:1:pos:R:3:initial_magmoms:R:1 pbc="T T T"
Si       1.31157306      -1.21310544      -1.29026574       0.00000000
Si      -1.40342694       1.50189456      -1.29026574       0.00000000
Si       1.31157306       1.50189456       1.42473426       0.00000000
Si       0.14602356      -2.37764496       2.56715196       0.00000000
Si      -0.04592694      -2.57060544      -2.64776574       0.00000000
Si       2.66907306      -2.57060544       0.06723426       0.00000000
Si       2.66907306       0.14439456      -2.64776574       0.00000000
Si      -2.76092694       0.14439456      -2.64776574       0.00000000
Si      -2.64479010       2.77941066       0.19398132       0.00000000
Si       2.66907306       0.14439456       2.78223426       0.00000000
