10
Lattice="10.86 0.0 0.0 0.0 10.86 0.0 0.0 0.0 10.86" Properties=species:S:1:pos:R:3:initial_magmoms:R:1 pbc="T T T"
Si      -1.37527782       1.37806884      -1.23344622       0.00000000
Si      -1.37527782      -1.33693116       1.48155378       0.00000000
Si       1.33972218       1.37806884       1.48155378       0.00000000
Si       2.50914870      -0.13700976      -2.44975536       0.00000000
Si      -2.47421208      -2.58801402       0.34489188       0.00000000
Si      -0.01777782       2.73556884      -2.59094622       0.00000000
Si       2.69722218       2.73556884       0.12405378       0.00000000
Si      -2.73277782       2.73556884       0.12405378       0.00000000
Si      -2.71868154       0.13720524      -2.76618318       0.00000000
Si       2.73058410      -2.75532318       0.15042186       0.00000000
