10
Lattice="10.86 0.0 0.0 0.0 10.86 0.0 0.0 0.0 10.86" Properties=species:S:1:pos:R:3:initial_magmoms:R:1 pbc="T T T"
Si       1.25130006      -1.38321648      -1.17432438       0.00000000
Si      -1.46369994       1.33178352      -1.17432438       0.00000000
Si       1.20999948       1.68441858       1.01771232       0.00000000
Si      -1.46369994      -1.38321648       1.54067562       0.00000000
Si      -0.26595054       2.46232038      -2.63556996       0.00000000
Si       2.49773484       0.39678096       2.64799380       0.00000000
Si       2.70601878      -0.25059450      -2.55241494       0.00000000
Si      -0.10619994      -2.74071648      -2.53182438       0.00000000
Si       2.60880006      -2.74071648       0.18317562       0.00000000
Si      -2.82119994      -0.02571648      -2.53182438       0.00000000
