10
Lattice="10.86 0.0 0.0 0.0 10.86 0.0 0.0 0.0 10.86" Properties=species:S:1:pos:R:3:initial_magmoms:R:1 pbc="T T T"
Si      -1.35750000      -1.35750000       1.35750000       0.00000000
Si       1.35750000       1.35750000       1.35750000       0.00000000
Si       1.35750000      -1.35750000      -1.35750000       0.00000000
Si      -1.35750000       1.35750000      -1.35750000       0.00000000
Si       2.70632286      -2.49147948       0.11157564       0.00000000
Si       0.18793230      -2.53005420       2.67188580       0.00000000
Si       0.09721872       2.49012198      -2.73559056       0.00000000
Si      -2.60880006       2.74071648      -0.18317562       0.00000000
Si      -2.51338410      -2.88167928      -0.24492558       0.00000000
Si       2.71500000       0.00000000      -2.71500000       0.00000000
