10
Lattice="16.28999089631971 0.0 0.0 0.0 16.28999089631971 0.0 0.0 0.0 34.53561885213415" Properties=species:S:1:pos:R:3:initial_magmoms:R:1 pbc="T T T"
Si      -1.35733167       1.35656441       1.35680162       0.00000000
Si       1.35672894      -1.35732962       1.35700883       0.00000000
Si       1.35689184       1.35791648      -1.35659440       0.00000000
Si      -1.35814617      -1.35779601      -1.35780315       0.00000000
Si       0.00164529       2.71210418      -2.71273984       0.00000000
Si       2.71290402       0.00046589       2.71408673       0.00000000
Si       0.00074934       2.71324448       2.71453569       0.00000000
Si      -2.71386513       0.00297944      -2.71481198       0.00000000
Si      -2.71438641       0.00081287       2.71450116       0.00000000
Si       2.71469592       2.71474316       0.00041443       0.00000000
