10
Lattice="16.28999089631971 0.0 0.0 0.0 16.28999089631971 0.0 0.0 0.0 34.53561885213415" Properties=species:S:1:pos:R:3:initial_magmoms:R:1 pbc="T T T"
Si      -1.35819504       1.35125550       1.35766501       0.00000000
Si       1.35661491      -1.35533364       1.35735419       0.00000000
Si       1.35705474       1.35575154      -1.35769954       0.00000000
Si      -1.35785295      -1.35821007      -1.35721604       0.00000000
Si       2.71513575       2.71243161       0.00003454       0.00000000
Si      -0.00076563       2.71399545      -2.71450116       0.00000000
Si       2.71438641      -0.00081287      -2.71450116       0.00000000
Si      -2.71556092      -0.00129994      -2.71415580       0.00000000
Si      -2.71638845       2.71336014       0.00224482       0.00000000
Si       2.71306692      -2.71678823       0.00010361       0.00000000
