10
Lattice="16.28999089631971 0.0 0.0 0.0 16.28999089631971 0.0 0.0 0.0 34.53561885213415" Properties=species:S:1:pos:R:3:initial_magmoms:R:1 pbc="T T T"
Si      -1.36386396      -1.34710882      -1.36277628       0.00000000
Si       1.35055503       1.36363427      -1.36395049       0.00000000
Si      -1.30197825       1.37016656       1.42348993       0.00000000
Si       1.34185617      -1.30819109       1.50716978       0.00000000
Si       0.58873689       2.28164093       2.65402926       0.00000000
Si      -2.22700590      -0.53945801       2.85250557       0.00000000
Si      -0.38726217      -2.34306468       2.86183019       0.00000000
Si       2.33447103       0.48864950       2.93753231       0.00000000
Si       2.70803331      -2.71139787       0.03028775       0.00000000
Si       2.70681156       0.00787784      -2.72054490       0.00000000
