10
Lattice="16.28999089631971 0.0 0.0 0.0 16.28999089631971 0.0 0.0 0.0 34.53561885213415" Properties=species:S:1:pos:R:3:initial_magmoms:R:1 pbc="T T T"
Si       0.35963433       1.77696207       1.54913058       0.00000000
Si      -0.58738482      -1.61249497       1.65943741       0.00000000
Si       1.49812614      -0.69337082      -1.77226534       0.00000000
Si      -2.00451708      -0.58962307      -1.45919978       0.00000000
Si       0.91711071      -3.28392458       1.02543217       0.00000000
Si      -2.92594464      -1.21686789       1.64980197       0.00000000
Si       1.24248717      -3.07280618      -1.36799116       0.00000000
Si       0.70144740       3.30059835      -1.60628707       0.00000000
Si       3.61408311       0.16982325      -1.01614208       0.00000000
Si       2.58561396       1.52847441       2.34994296       0.00000000
