10
Lattice="16.28999089631971 0.0 0.0 0.0 16.28999089631971 0.0 0.0 0.0 34.53561885213415" Properties=species:S:1:pos:R:3:initial_magmoms:R:1 pbc="T T T"
Si       0.62496585      -1.38658851       1.76694685       0.00000000
Si      -0.55131876       2.02681809       1.03347897       0.00000000
Si       1.50426747       0.23289813      -1.82375798       0.00000000
Si      -2.26939248      -0.23837157      -0.78147242       0.00000000
Si      -2.28641553       2.20921722      -0.50346053       0.00000000
Si       1.31110065      -3.26368195       0.54956561       0.00000000
Si       0.55724832      -3.15655891      -1.71345115       0.00000000
Si      -1.78131150      -2.76093183      -1.72308659       0.00000000
Si      -1.66107501       1.42697142       3.02508015       0.00000000
Si       0.93587679       2.30034348      -2.81154630       0.00000000
