10
Lattice="16.28999089631971 0.0 0.0 0.0 16.28999089631971 0.0 0.0 0.0 34.53561885213415" Properties=species:S:1:pos:R:3:initial_magmoms:R:1 pbc="T T T"
Si      -0.68613480       1.87709344       1.21738124       0.00000000
Si      -1.05981111      -1.85799897       0.97518281       0.00000000
Si       2.34918090      -0.16795316       0.04510354       0.00000000
Si      -0.75385233       0.10712304      -2.26301676       0.00000000
Si       0.75064320      -1.56430656      -2.89702201       0.00000000
Si       2.83864653       2.06612260       0.40786589       0.00000000
Si       1.35738054       2.41168237       2.23072594       0.00000000
Si      -1.31110065       3.26368195      -0.54956561       0.00000000
Si      -3.06090729      -0.88134831       1.60939527       0.00000000
Si       2.80963404      -0.71662383      -2.14849659       0.00000000
