10
Lattice="16.28999089631971 0.0 0.0 0.0 16.28999089631971 0.0 0.0 0.0 34.53561885213415" Properties=species:S:1:pos:R:3:initial_magmoms:R:1 pbc="T T T"
Si       1.74865005      -1.20750114       0.87737789       0.00000000
Si      -0.29317113      -0.62649711      -2.21825857       0.00000000
Si       0.74699424       2.19978531      -0.47607377       0.00000000
Si      -2.17121265       0.23467374       1.13705135       0.00000000
Si      -0.13084128       2.97900117       1.58242294       0.00000000
Si      -2.07246267       0.86265324      -2.56717213       0.00000000
Si       1.39724217      -0.27785853       3.11473467       0.00000000
Si      -3.39600888      -0.11743461      -0.86086985       0.00000000
Si      -0.71589663       2.83854879      -2.24965147       0.00000000
Si       1.19060352      -3.48021908       0.38869861       0.00000000
