10
Lattice="16.28999089631971 0.0 0.0 0.0 16.28999089631971 0.0 0.0 0.0 34.53561885213415" Properties=species:S:1:pos:R:3:initial_magmoms:R:1 pbc="T T T"
Si       1.35589815      -1.35702216       1.35614544       0.00000000
Si      -1.35594702       1.35752715       1.35873561       0.00000000
Si      -1.35808101      -1.35668007      -1.35773408       0.00000000
Si       1.35690813       1.35909099      -1.35735419       0.00000000
Si       2.71215468      -2.71277859      -0.00044896       0.00000000
Si      -2.71513575      -2.71243161      -0.00003454       0.00000000
Si      -0.00074934      -2.71324448      -2.71453569       0.00000000
Si       2.71394658       0.00149868      -2.71412127       0.00000000
Si       2.71528236       2.71471221      -0.00051803       0.00000000
Si      -2.71590138       0.00156384      -2.71453569       0.00000000
