10
Lattice="16.28999089631971 0.0 0.0 0.0 16.28999089631971 0.0 0.0 0.0 34.53561885213415" Properties=species:S:1:pos:R:3:initial_magmoms:R:1 pbc="T T T"
Si       1.36018242       1.35246096      -1.37551993       0.00000000
Si      -1.35720135      -1.36624230      -1.37662507       0.00000000
Si      -1.39036779       1.27252593       1.46962955       0.00000000
Si       1.41949431      -1.35555606       1.40933032       0.00000000
Si      -2.70147821      -2.70575108       0.00656177       0.00000000
Si       0.38669202       0.52579233       3.76997933       0.00000000
Si       2.69340489       2.72370429       0.00269378       0.00000000
Si      -2.72907347       2.69368182       0.01205294       0.00000000
Si      -0.00043983       2.71031391      -2.73187258       0.00000000
Si       2.72147256      -2.72572262      -0.01415961       0.00000000
