10
Lattice="16.28999089631971 0.0 0.0 0.0 16.28999089631971 0.0 0.0 0.0 34.53561885213415" Properties=species:S:1:pos:R:3:initial_magmoms:R:1 pbc="T T T"
Si      -0.87783552       0.77921586       2.05849671       0.00000000
Si      -0.74699424      -2.19978531       0.47607377       0.00000000
Si      -1.46289087       0.63876348      -1.77357770       0.00000000
Si       2.14053858       1.15113285      -0.07639283       0.00000000
Si      -1.04016537      -2.82628242      -1.74218480       0.00000000
Si      -0.46286406       3.04583904       1.86509714       0.00000000
Si       1.41501456       3.38136417       0.32829578       0.00000000
Si      -2.81945691      -1.33713207      -2.09109835       0.00000000
Si       1.00165581      -3.40728645       1.35345166       0.00000000
Si       0.82314999      -2.17479645      -3.03171100       0.00000000
