10
Lattice="16.28999089631971 0.0 0.0 0.0 16.28999089631971 0.0 0.0 0.0 34.53561885213415" Properties=species:S:1:pos:R:3:initial_magmoms:R:1 pbc="T T T"
Si       1.35694071       1.35702216      -1.35745779       0.00000000
Si      -1.35786924      -1.35767376      -1.35649080       0.00000000
Si       1.35739683      -1.35725022       1.35818304       0.00000000
Si      -1.35757602       1.35726651       1.35825211       0.00000000
Si      -0.00094482       2.71401174       2.71515734       0.00000000
Si       2.71480995      -2.71495656       0.00020721       0.00000000
Si      -2.71475456       2.71510317       0.00044896       0.00000000
Si      -2.71521557      -2.71480995       0.00048350       0.00000000
Si       2.71539639       2.71467963       0.00055257       0.00000000
Si       2.71507059       0.00026064       2.71602073       0.00000000
