10
Lattice="16.28999089631971 0.0 0.0 0.0 16.28999089631971 0.0 0.0 0.0 34.53561885213415" Properties=species:S:1:pos:R:3:initial_magmoms:R:1 pbc="T T T"
Si      -1.35658233      -1.35641943      -1.35742326       0.00000000
Si       1.35804843       1.35864574      -1.35759594       0.00000000
Si      -1.35645201       1.36145459       1.35725058       0.00000000
Si       1.35891180      -1.35865116       1.36139486       0.00000000
Si      -2.71383255       0.00026064      -2.71432848       0.00000000
Si       0.00741195       2.70856341       2.72002686       0.00000000
Si       0.00158013      -2.71440270      -2.71463930       0.00000000
Si      -2.71476108      -2.71507059      -0.00003454       0.00000000
Si      -2.71306692       2.71678823      -0.00010361       0.00000000
Si       0.00131949       2.71597536      -2.71460477       0.00000000
