10
Lattice="16.28999089631971 0.0 0.0 0.0 16.28999089631971 0.0 0.0 0.0 34.53561885213415" Properties=species:S:1:pos:R:3:initial_magmoms:R:1 pbc="T T T"
Si       0.87402366       0.65845809       2.06302088       0.00000000
Si       0.98477937      -2.09993413      -0.34988055       0.00000000
Si       1.62227223       0.96901065      -1.42601103       0.00000000
Si      -2.20199912       0.31522779      -0.84477624       0.00000000
Si       2.11035321      -1.55354961      -2.36762521       0.00000000
Si       2.65331520      -0.83069226       2.41193443       0.00000000
Si      -1.97233781      -0.08003277      -3.23484962       0.00000000
Si      -0.44952255      -0.32162976       3.76932315       0.00000000
Si      -3.01950530       2.41134354      -0.05618948       0.00000000
Si       2.14185807      -2.93764805       1.51442227       0.00000000
