10
Lattice="16.28999089631971 0.0 0.0 0.0 16.28999089631971 0.0 0.0 0.0 34.53561885213415" Properties=species:S:1:pos:R:3:initial_magmoms:R:1 pbc="T T T"
Si       0.09052353      -0.40984011       2.29016177       0.00000000
Si      -0.69579477       2.06563716      -0.87350990       0.00000000
Si      -2.11595697      -0.86319407      -0.75612326       0.00000000
Si       1.37600001      -2.06900430      -0.32791588       0.00000000
Si       2.41984692       0.86625333      -0.87685985       0.00000000
Si       2.40953535      -0.64920537       2.73677665       0.00000000
Si      -3.61408311      -0.16982325       1.01614208       0.00000000
Si      -1.02846915       1.35865116       3.36608504       0.00000000
Si       3.49914087       0.81015057       1.22874347       0.00000000
Si       3.27477870      -1.18496881      -1.59578823       0.00000000
