10
Lattice="16.28999089631971 0.0 0.0 0.0 16.28999089631971 0.0 0.0 0.0 34.53561885213415" Properties=species:S:1:pos:R:3:initial_magmoms:R:1 pbc="T T T"
Si      -1.35850455       1.35588186       1.36084229       0.00000000
Si       1.36863693       1.35014778      -1.35801727       0.00000000
Si       1.35801585      -1.35912357       1.36063507       0.00000000
Si      -1.36653552      -1.36256076      -1.36673407       0.00000000
Si       2.68736130      -0.14476923      -2.66627559       0.00000000
Si       0.02643867       2.66017329      -2.75482497       0.00000000
Si      -2.71419093       2.71513575       0.00058711       0.00000000
Si      -2.71308321      -2.71841004       0.00542210       0.00000000
Si       2.71686249       2.71484253       0.00469685       0.00000000
Si      -0.00048870       2.71461447       2.71798926       0.00000000
