10
Lattice="16.28999089631971 0.0 0.0 0.0 16.28999089631971 0.0 0.0 0.0 34.53561885213415" Properties=species:S:1:pos:R:3:initial_magmoms:R:1 pbc="T T T"
Si      -1.22479623      -0.35210835      -1.99792120       0.00000000
Si      -0.23622129       2.24472942       0.82564350       0.00000000
Si      -0.45911736      -1.73064797       1.62044668       0.00000000
Si       2.17121265      -0.23467374      -1.13705135       0.00000000
Si       2.04037137       2.74432743       0.44537159       0.00000000
Si      -1.49400477      -2.74089743      -2.02340850       0.00000000
Si       0.09874998       0.62797950      -3.70422348       0.00000000
Si      -1.55662353      -3.42168911       0.28288141       0.00000000
Si       2.91820689       1.96511157      -1.61312512       0.00000000
Si       1.77577290      -1.97686643       2.82650023       0.00000000
