10
Lattice="16.28999089631971 0.0 0.0 0.0 16.28999089631971 0.0 0.0 0.0 34.53561885213415" Properties=species:S:1:pos:R:3:initial_magmoms:R:1 pbc="T T T"
Si      -2.21987251       0.80498664       0.02773212       0.00000000
Si       1.22479623       0.35210835       1.99792120       0.00000000
Si       1.32354621       0.98008785      -1.70630227       0.00000000
Si      -0.26920854      -2.38878908      -0.02548730       0.00000000
Si       3.10283775      -0.50906250      -1.35738872       0.00000000
Si       3.39600888       0.11743461       0.86086985       0.00000000
Si      -2.45075834       1.73700270       2.19788255       0.00000000
Si      -2.46159412      -2.78890406      -0.79625367       0.00000000
Si       0.44952255       0.32162976      -3.76932315       0.00000000
Si      -3.69382985      -1.02978050       0.17184934       0.00000000
