10
Lattice="16.28999089631971 0.0 0.0 0.0 16.28999089631971 0.0 0.0 0.0 34.53561885213415" Properties=species:S:1:pos:R:3:initial_magmoms:R:1 pbc="T T T"
Si       1.33750674       1.35299853       1.37210090       0.00000000
Si       1.35040842      -1.35878148      -1.35818304       0.00000000
Si      -1.36148562       1.35816246      -1.35797583       0.00000000
Si      -1.35597960      -1.36547667       1.36319071       0.00000000
Si       0.05119947      -2.74916556       2.64104386       0.00000000
Si       2.71046052       0.00040725      -2.71484652       0.00000000
Si       2.71096551      -2.71516833       0.00134689       0.00000000
Si       2.71308321       2.71559187      -0.00231389       0.00000000
Si      -0.00488700      -2.71466334      -2.71550269       0.00000000
Si      -0.00451233       2.71531494      -2.71529548       0.00000000
