10
Lattice="16.28999089631971 0.0 0.0 0.0 16.28999089631971 0.0 0.0 0.0 34.53561885213415" Properties=species:S:1:pos:R:3:initial_magmoms:R:1 pbc="T T T"
Si       1.41749064      -0.71596179      -1.69535448       0.00000000
Si       1.93245012       0.23245830       1.46589970       0.00000000
Si      -1.05210594      -2.28656214       0.51409751       0.00000000
Si      -1.49180562       1.88265159      -1.02391260       0.00000000
Si      -0.21390399      -1.74000006      -2.95821916       0.00000000
Si       2.43556677       1.07771382      -2.77666531       0.00000000
Si       0.70641585      -3.39700257       1.67553102       0.00000000
Si       1.23795855      -0.41749641       3.68716287       0.00000000
Si      -3.06077697       2.31120891       0.85676011       0.00000000
Si       2.79003717       2.48212359       1.25264213       0.00000000
