10
Lattice="16.28999089631971 0.0 0.0 0.0 16.28999089631971 0.0 0.0 0.0 34.53561885213415" Properties=species:S:1:pos:R:3:initial_magmoms:R:1 pbc="T T T"
Si       1.67262462      -1.65820797       0.17171119       0.00000000
Si      -1.74698847      -1.33921719      -0.87875931       0.00000000
Si       0.62454231       2.17621368      -0.77646475       0.00000000
Si      -0.87521283       0.87482187       2.05245298       0.00000000
Si       2.34742158      -0.76856220       2.21542665       0.00000000
Si       1.19410587       1.11495276       3.21122724       0.00000000
Si      -1.33343424       2.98022292      -1.87421455       0.00000000
Si       0.53546859      -3.71881152       0.46823418       0.00000000
Si      -2.63733471      -0.30649635      -2.80505360       0.00000000
Si      -2.61017928       2.45265498       1.53517819       0.00000000
