10
Lattice="16.28999089631971 0.0 0.0 0.0 16.28999089631971 0.0 0.0 0.0 34.53561885213415" Properties=species:S:1:pos:R:3:initial_magmoms:R:1 pbc="T T T"
Si       1.35186800      -1.36024758       1.36094589       0.00000000
Si       1.34649230       1.34268696      -1.38783534       0.00000000
Si      -1.36340525       1.35625653       1.36080775       0.00000000
Si      -1.36745980      -1.35949824      -1.37532308       0.00000000
Si      -0.17506049       2.54449800      -2.84098103       0.00000000
Si       2.71196897      -2.71293660       0.00334996       0.00000000
Si       2.71410296       2.71448415      -0.00107060       0.00000000
Si       2.71068206      -0.00110772       2.71816194       0.00000000
Si      -0.00451722       2.71420722       2.71805833       0.00000000
Si      -2.71897760       2.71464705       0.00404067       0.00000000
