10
Lattice="16.28999089631971 0.0 0.0 0.0 16.28999089631971 0.0 0.0 0.0 34.53561885213415" Properties=species:S:1:pos:R:3:initial_magmoms:R:1 pbc="T T T"
Si      -0.32537646      -0.21111840       2.39342333       0.00000000
Si       0.25563897       2.37943536      -0.40427418       0.00000000
Si       2.38940091      -0.73591704      -0.78637648       0.00000000
Si      -2.31972858      -1.07751834      -0.68283864       0.00000000
Si      -1.14531732      -3.24061857      -0.88186752       0.00000000
Si      -1.24248717       3.07280618       1.36799116       0.00000000
Si       1.73361438       0.63656433       3.14194875       0.00000000
Si      -1.82987199       1.46031120       3.02742858       0.00000000
Si       3.74759595       1.17362512       0.02393320       0.00000000
Si       2.93850423      -2.36442834       1.13556632       0.00000000
