10
Lattice="16.28999089631971 0.0 0.0 0.0 16.28999089631971 0.0 0.0 0.0 34.53561885213415" Properties=species:S:1:pos:R:3:initial_magmoms:R:1 pbc="T T T"
Si      -1.35734796       1.35678107       1.35662894       0.00000000
Si       1.35812988       1.35682994      -1.35649080       0.00000000
Si       1.35827649      -1.35894323       1.35690522       0.00000000
Si      -1.35878148      -1.35814466      -1.35825211       0.00000000
Si       2.70980892       0.00098880      -2.71584805       0.00000000
Si       0.00506619       2.71305389      -2.71353416       0.00000000
Si       2.71456560       2.71458515       0.00051803       0.00000000
Si      -2.71498914       2.71422677       0.00027629       0.00000000
Si       2.71524978      -0.00097740       2.71470837       0.00000000
Si      -2.71678104      -0.00005050       2.71394859       0.00000000
