10
Lattice="16.28999089631971 0.0 0.0 0.0 16.28999089631971 0.0 0.0 0.0 34.53561885213415" Properties=species:S:1:pos:R:3:initial_magmoms:R:1 pbc="T T T"
Si       0.85493178      -2.05122214      -0.71892838       0.00000000
Si       1.07929395      -0.05610276       2.10560332       0.00000000
Si       0.80889624       2.17083798      -1.20567366       0.00000000
Si      -2.41984692      -0.86625333       0.87685985       0.00000000
Si      -1.04384691      -2.93525763       0.54894397       0.00000000
Si      -3.11564169       1.19938383       0.00334996       0.00000000
Si       0.11057652       3.32672751       0.66878263       0.00000000
Si       1.00186758       2.27033730       2.55950521       0.00000000
Si      -2.39101362       1.31668812      -2.49250608       0.00000000
Si      -0.01031157      -1.51545870       3.61363650       0.00000000
