10
Lattice="16.28999089631971 0.0 0.0 0.0 16.28999089631971 0.0 0.0 0.0 34.53561885213415" Properties=species:S:1:pos:R:3:initial_magmoms:R:1 pbc="T T T"
Si      -1.88314029       0.85437792      -1.10406982       0.00000000
Si      -1.40792841      -0.53375814       1.81467722       0.00000000
Si       1.49257125      -1.36466217      -1.42041626       0.00000000
Si       1.03824315       2.02782807       1.58839761       0.00000000
Si       0.28158894       0.40866723       3.12549740       0.00000000
Si       1.78499094       0.26627634      -3.20342219       0.00000000
Si      -2.04198408       3.06714636      -0.15306195       0.00000000
Si      -0.25102890       1.36787130      -3.41833746       0.00000000
Si      -3.90516912       0.06538806      -0.25680701       0.00000000
Si      -3.40548966       1.18112274       1.94306829       0.00000000
