10
Lattice="16.28999089631971 0.0 0.0 0.0 16.28999089631971 0.0 0.0 0.0 34.53561885213415" Properties=species:S:1:pos:R:3:initial_magmoms:R:1 pbc="T T T"
Si      -1.35708732       1.35676152      -1.35680162       0.00000000
Si       1.35713619      -1.35775521      -1.35635265       0.00000000
Si      -1.35788553      -1.35557235       1.35797583       0.00000000
Si       1.35791811       1.35710361       1.35718151       0.00000000
Si      -0.00081450       2.71293660      -2.71408673       0.00000000
Si       2.71363707      -0.00068418      -2.71436302       0.00000000
Si      -2.71709055       0.00008145       2.71142749       0.00000000
Si       0.00070047      -2.71551042      -2.71336148       0.00000000
Si      -2.71437012      -0.00146610      -2.71453569       0.00000000
Si      -2.71510317       2.71415835      -0.00013814       0.00000000
