10
Lattice="16.28999089631971 0.0 0.0 0.0 16.28999089631971 0.0 0.0 0.0 34.53561885213415" Properties=species:S:1:pos:R:3:initial_magmoms:R:1 pbc="T T T"
Si      -1.12780557       1.45176480      -1.42535486       0.00000000
Si       0.74284029       1.88300997       1.23537431       0.00000000
Si       1.57366287      -1.24403472      -1.37009784       0.00000000
Si      -1.73669319      -0.78508026       1.56840147       0.00000000
Si       1.46321667       0.06906960       2.85523388       0.00000000
Si      -2.44314162      -2.51693532       0.06806974       0.00000000
Si      -3.24708570       1.07528661       1.23205889       0.00000000
Si      -2.43556677       2.78751222      -0.11092847       0.00000000
Si      -2.49364062       0.10793754      -2.75590939       0.00000000
Si       2.67568137       2.63308302       0.03170372       0.00000000
