10
Lattice="16.28999089631971 0.0 0.0 0.0 16.28999089631971 0.0 0.0 0.0 34.53561885213415" Properties=species:S:1:pos:R:3:initial_magmoms:R:1 pbc="T T T"
Si      -0.74284029      -1.88300997      -1.23537431       0.00000000
Si       1.93284108       0.75007305      -1.20367060       0.00000000
Si      -1.54701243       1.92854052      -0.08343810       0.00000000
Si       0.72037638      -1.81394037       1.61985957       0.00000000
Si       2.57156451       1.03948119       1.15891241       0.00000000
Si      -1.87064586      -0.43124517      -2.66072917       0.00000000
Si       0.02205666      -0.65805084       3.49431587       0.00000000
Si      -3.17840706       0.90450225      -1.34630278       0.00000000
Si       0.84136221       2.31445062      -2.60630100       0.00000000
Si       1.01266785       1.55230668       3.14830331       0.00000000
