10
Lattice="16.28999089631971 0.0 0.0 0.0 16.28999089631971 0.0 0.0 0.0 34.53561885213415" Properties=species:S:1:pos:R:3:initial_magmoms:R:1 pbc="T T T"
Si      -0.28463517       2.30948217      -0.23857219       0.00000000
Si       1.66017906      -0.26700939      -1.65404985       0.00000000
Si       0.67465035      -0.27306927       2.24675048       0.00000000
Si      -1.64581128      -1.41773499      -0.93218595       0.00000000
Si       1.94416263      -2.23267482       2.07403775       0.00000000
Si      -2.45247579       2.38083237      -1.17687094       0.00000000
Si      -3.16337139       0.15164361      -1.83135582       0.00000000
Si      -2.11185189      -2.93604444       0.87910467       0.00000000
Si       1.58781888       1.80292833       2.92347631       0.00000000
Si      -0.66670083      -2.27323692      -2.96295054       0.00000000
