10
Lattice="16.28999089631971 0.0 0.0 0.0 16.28999089631971 0.0 0.0 0.0 34.53561885213415" Properties=species:S:1:pos:R:3:initial_magmoms:R:1 pbc="T T T"
Si       1.58909180       1.38088701       1.08224329       0.00000000
Si       0.28512943      -1.91446596       1.41506324       0.00000000
Si      -1.90980702       0.86279985       1.16896228       0.00000000
Si      -0.06498081       0.01352070      -2.43818152       0.00000000
Si       1.00094298       3.49560594       0.18559452       0.00000000
Si      -3.61957284      -0.51253227       0.30612390       0.00000000
Si       0.05424360      -0.98244990       3.58521367       0.00000000
Si       1.47677062       0.95232969       3.43525993       0.00000000
Si      -3.03280704      -1.90449648      -1.49670549       0.00000000
Si      -1.98177624       0.11914506       3.37029839       0.00000000
