10
Lattice="16.28999089631971 0.0 0.0 0.0 16.28999089631971 0.0 0.0 0.0 34.53561885213415" Properties=species:S:1:pos:R:3:initial_magmoms:R:1 pbc="T T T"
Si       1.67387895       1.00196532      -1.42114151       0.00000000
Si      -0.94833864      -1.80703341      -1.37030505       0.00000000
Si       1.87351290      -0.18292041       1.61675136       0.00000000
Si      -1.27094580       2.29653162       0.71803045       0.00000000
Si       0.82872117      -2.55376701       0.93004474       0.00000000
Si      -2.78784454      -1.18522782       1.50682443       0.00000000
Si       0.47671056      -0.00592956       3.50816466       0.00000000
Si      -1.63812240      -3.11723811       0.47735159       0.00000000
Si      -3.25451231       1.08962181       0.92990659       0.00000000
Si      -2.28704432      -0.38587752      -2.82788166       0.00000000
