10
Lattice="16.28999089631971 0.0 0.0 0.0 16.28999089631971 0.0 0.0 0.0 34.53561885213415" Properties=species:S:1:pos:R:3:initial_magmoms:R:1 pbc="T T T"
Si       1.45658664      -1.24976880       1.43673090       0.00000000
Si      -1.26416916       1.45433862       1.44220825       0.00000000
Si       1.21691187       1.65405402      -1.33911043       0.00000000
Si      -0.91701297      -1.90951380      -1.29193475       0.00000000
Si      -2.64543084      -2.74789494       0.14650363       0.00000000
Si       2.64157567      -2.77322589      -0.02820180       0.00000000
Si       0.09765855      -2.60307684       2.81681989       0.00000000
Si      -2.61592965       0.11171682       2.81747607       0.00000000
Si      -2.66481594       2.80235241       0.08719213       0.00000000
Si       2.86620499       0.28000881      -2.72398952       0.00000000
