10
Lattice="16.28999089631971 0.0 0.0 0.0 16.28999089631971 0.0 0.0 0.0 34.53561885213415" Properties=species:S:1:pos:R:3:initial_magmoms:R:1 pbc="T T T"
Si      -1.35715248       1.35747828       1.35749233       0.00000000
Si       1.35851560       1.35710361      -1.35683615       0.00000000
Si       1.35804365      -1.35738054       1.35721604       0.00000000
Si      -1.35821133      -1.35881406      -1.35711244       0.00000000
Si      -2.71292031       0.00074934      -2.71349963       0.00000000
Si       0.00066789      -2.71404432      -2.71415580       0.00000000
Si      -0.00162900       2.71360449       2.71477744       0.00000000
Si       2.71366706       0.00032580       2.71481198       0.00000000
Si       0.00052128      -2.71464705       2.71415580       0.00000000
Si      -2.71448415      -2.71498914       0.00017268       0.00000000
