10
Lattice="16.28999089631971 0.0 0.0 0.0 16.28999089631971 0.0 0.0 0.0 34.53561885213415" Properties=species:S:1:pos:R:3:initial_magmoms:R:1 pbc="T T T"
Si      -1.01807613      -1.79367561       1.08131083       0.00000000
Si      -1.36316349       1.28445021      -1.45049680       0.00000000
Si       0.67645854       1.80380799       1.40791436       0.00000000
Si       1.37029851      -1.40776551      -1.44155207       0.00000000
Si       2.54330883       2.62420497       0.03104754       0.00000000
Si      -2.81044854       2.48635899       0.06136983       0.00000000
Si      -2.43556677      -1.07771382       2.77666531       0.00000000
Si       2.46177738      -2.97214308      -0.03892166       0.00000000
Si       0.01241298       2.64704355      -2.82491159       0.00000000
Si      -2.64947076      -2.81771388      -0.18155385       0.00000000
