10
Lattice="16.28999089631971 0.0 0.0 0.0 16.28999089631971 0.0 0.0 0.0 34.53561885213415" Properties=species:S:1:pos:R:3:initial_magmoms:R:1 pbc="T T T"
Si      -0.91316853      -2.07599760      -0.67672583       0.00000000
Si      -1.54044756       1.50408828      -1.02940377       0.00000000
Si       2.01808665       0.49282137      -1.22390848       0.00000000
Si      -0.18538020       0.06970491       2.41373029       0.00000000
Si      -2.54120742      -2.23826229       1.13249265       0.00000000
Si       2.97776054      -1.65986955       1.45971782       0.00000000
Si      -1.87245405       0.50655384      -3.16204849       0.00000000
Si      -1.58781888      -1.80292833      -2.92347631       0.00000000
Si      -0.48009888       3.65493843      -0.94555124       0.00000000
Si      -1.86641046      -1.34861652       3.17620811       0.00000000
