10
Lattice="16.28999089631971 0.0 0.0 0.0 16.28999089631971 0.0 0.0 0.0 34.53561885213415" Properties=species:S:1:pos:R:3:initial_magmoms:R:1 pbc="T T T"
Si       1.62189171       1.17745749       1.38721512       0.00000000
Si      -1.21691187      -1.65405402       1.33911043       0.00000000
Si       1.64929312      -1.37404521      -1.38487909       0.00000000
Si      -1.70787618       1.56455676      -1.37959514       0.00000000
Si       1.06578532       0.52517331      -3.13925497       0.00000000
Si       0.17526411       2.61570159      -2.36392990       0.00000000
Si       0.00364896      -1.68570549      -3.14978834       0.00000000
Si      -2.48108103      -0.19971540       2.78131868       0.00000000
Si       0.24441847       2.53985535       2.77527494       0.00000000
Si       2.87672345       2.78949960      -0.05677659       0.00000000
