10
Lattice="16.28999089631971 0.0 0.0 0.0 16.28999089631971 0.0 0.0 0.0 34.53561885213415" Properties=species:S:1:pos:R:3:initial_magmoms:R:1 pbc="T T T"
Si       1.08237607      -1.52938665       1.56455420       0.00000000
Si      -1.94548212      -1.14878709      -0.95366228       0.00000000
Si      -1.61903052       1.18902224       1.55709105       0.00000000
Si       1.93012295       0.22089240      -1.99689001       0.00000000
Si       2.33476003       2.32215320       0.27686530       0.00000000
Si      -0.86991858      -2.50468524      -2.59031588       0.00000000
Si       2.45984931      -2.89178451       0.17649438       0.00000000
Si       2.43373482      -0.18443538       2.94655647       0.00000000
Si      -2.98802583       2.49079869       0.05553676       0.00000000
Si      -0.28698093       2.53456014       2.94362094       0.00000000
