10
Lattice="16.28999089631971 0.0 0.0 0.0 16.28999089631971 0.0 0.0 0.0 34.53561885213415" Properties=species:S:1:pos:R:3:initial_magmoms:R:1 pbc="T T T"
Si      -0.67645854      -1.80380799      -1.40791436       0.00000000
Si      -1.77168411       1.65226212      -0.02776665       0.00000000
Si       1.86685029       0.82039698      -1.37686682       0.00000000
Si      -0.32198814      -0.39939822       2.62139308       0.00000000
Si      -2.03962203      -0.51935778      -2.85841116       0.00000000
Si       0.69323724       2.18802393      -2.88386393       0.00000000
Si      -3.48690708       0.68255100      -1.34654453       0.00000000
Si      -0.74355705       3.40939926      -1.52291804       0.00000000
Si       2.87938849       2.61879669      -0.12947411       0.00000000
Si      -1.69453467      -3.59748360      -0.32660353       0.00000000
