10
Lattice="16.28999089631971 0.0 0.0 0.0 16.28999089631971 0.0 0.0 0.0 34.53561885213415" Properties=species:S:1:pos:R:3:initial_magmoms:R:1 pbc="T T T"
Si       2.12061428       0.82012005       0.25459672       0.00000000
Si      -0.43947325       0.07623720      -2.27451713       0.00000000
Si      -1.10254860       1.55932767       1.35248466       0.00000000
Si      -1.07840682      -1.96483464       0.82813007       0.00000000
Si      -3.20721660       0.85010994       0.70718626       0.00000000
Si      -3.16636128      -1.29016800      -0.28094742       0.00000000
Si      -2.27679696      -1.40644602      -2.46660435       0.00000000
Si      -1.29925035       2.29908915      -2.53208392       0.00000000
Si       2.13786539       1.81405440       2.37677715       0.00000000
Si       3.54634766      -0.95957874      -0.26367960       0.00000000
