10
Lattice="16.28999089631971 0.0 0.0 0.0 16.28999089631971 0.0 0.0 0.0 34.53561885213415" Properties=species:S:1:pos:R:3:initial_magmoms:R:1 pbc="T T T"
Si      -1.35332080       1.35480672       1.35911550       0.00000000
Si      -1.35562341      -1.35770634      -1.35759594       0.00000000
Si       1.35910076       1.35726651      -1.35718151       0.00000000
Si       1.36032251      -1.35464382       1.36080775       0.00000000
Si      -2.71314578      -2.71497285      -0.00065618       0.00000000
Si      -2.71366706      -0.00032580      -2.71481198       0.00000000
Si      -2.71529606       2.71327869      -0.00003454       0.00000000
Si       2.71573196       2.71401174      -0.00027629       0.00000000
Si       0.00146121      -2.71480995      -2.71495012       0.00000000
Si       0.00192222       2.71510317      -2.71498466       0.00000000
