10
Lattice="16.28999089631971 0.0 0.0 0.0 16.28999089631971 0.0 0.0 0.0 34.53561885213415" Properties=species:S:1:pos:R:3:initial_magmoms:R:1 pbc="T T T"
Si      -1.98356651      -1.20690981       0.21187614       0.00000000
Si       0.39825792       1.37560905      -2.02744917       0.00000000
Si       0.17477541       1.35685926       2.10208069       0.00000000
Si       1.27094580      -2.29653162      -0.71803045       0.00000000
Si       2.07966285       2.70451467      -0.54158788       0.00000000
Si      -2.62228994      -1.49631795      -2.15070687       0.00000000
Si       1.57343481      -0.06296085       3.45394371       0.00000000
Si       2.94482475      -1.29456630      -2.13917196       0.00000000
Si      -1.51689874      -3.48175944       0.78879398       0.00000000
Si       1.70421093       0.06364503      -3.56563196       0.00000000
