10
Lattice="16.28999089631971 0.0 0.0 0.0 16.28999089631971 0.0 0.0 0.0 34.53561885213415" Properties=species:S:1:pos:R:3:initial_magmoms:R:1 pbc="T T T"
Si       1.39865940      -1.41982011       1.35186302       0.00000000
Si      -1.43216793       0.34810101       1.98486673       0.00000000
Si      -0.17477541      -1.35685926      -2.10208069       0.00000000
Si       0.84545100       2.27766780      -0.65210192       0.00000000
Si       1.90488744       1.34765541      -2.64366856       0.00000000
Si      -2.70000953       2.17297197       1.04715508       0.00000000
Si      -1.36826552       3.33413946      -0.87154136       0.00000000
Si      -2.15834192      -2.56376907      -1.89020455       0.00000000
Si       3.69776484      -0.04271238      -1.22577340       0.00000000
Si       0.15037299       0.78350013       3.82748117       0.00000000
