10
Lattice="16.28999089631971 0.0 0.0 0.0 16.28999089631971 0.0 0.0 0.0 34.53561885213415" Properties=species:S:1:pos:R:3:initial_magmoms:R:1 pbc="T T T"
Si      -1.26784160       1.82487096      -0.93771165       0.00000000
Si      -1.40684417      -1.96025715       0.28557519       0.00000000
Si       1.58254092       0.43539912       1.84261444       0.00000000
Si       1.43216793      -0.34810101      -1.98486673       0.00000000
Si       2.83082733      -1.76792112      -0.63300371       0.00000000
Si       2.73544938      -1.64999781       1.72999372       0.00000000
Si      -2.28507065      -2.39904459      -1.88568038       0.00000000
Si      -1.00532806       3.65585067       0.60482263       0.00000000
Si       0.22934039       1.14759792       3.72964171       0.00000000
Si       2.27761893       1.92956679      -2.63696865       0.00000000
