10
Lattice="16.28999089631971 0.0 0.0 0.0 16.28999089631971 0.0 0.0 0.0 34.53561885213415" Properties=species:S:1:pos:R:3:initial_magmoms:R:1 pbc="T T T"
Si      -0.01725111      -0.99393435      -2.12218043       0.00000000
Si       0.64527948      -1.75425381       1.44856281       0.00000000
Si       1.08015732       2.11928013       0.23011096       0.00000000
Si      -2.15034842      -0.29680380       1.07512895       0.00000000
Si       2.25127800       1.35830907       2.08201548       0.00000000
Si      -3.24041399      -0.25472673      -1.02429249       0.00000000
Si      -1.56219960      -2.41152273       1.97177772       0.00000000
Si       1.26180711      -0.37540305       3.24016811       0.00000000
Si       0.70517781       0.79529409      -3.46444254       0.00000000
Si      -2.13786539      -1.81405440      -2.37677715       0.00000000
