10
Lattice="16.28999089631971 0.0 0.0 0.0 16.28999089631971 0.0 0.0 0.0 34.53561885213415" Properties=species:S:1:pos:R:3:initial_magmoms:R:1 pbc="T T T"
Si      -1.35876519       1.35635427       1.36115311       0.00000000
Si       1.35778779      -1.35943308       1.35984075       0.00000000
Si       1.34799750       1.36233270      -1.37428010       0.00000000
Si      -1.34763912      -1.37090124      -1.37635224       0.00000000
Si      -2.71379834       2.71111212       0.00511127       0.00000000
Si       2.72199384       2.70703962       0.00062164       0.00000000
Si       0.00083079       2.71288773       2.71816194       0.00000000
Si      -2.71385210      -2.71767699       0.00024175       0.00000000
Si      -2.71390748      -0.00135207       2.71774751       0.00000000
Si       2.71652040      -2.71573848       0.00031082       0.00000000
