10
Lattice="16.28999089631971 0.0 0.0 0.0 16.28999089631971 0.0 0.0 0.0 34.53561885213415" Properties=species:S:1:pos:R:3:initial_magmoms:R:1 pbc="T T T"
Si      -1.35598123      -1.35615553       1.35756140       0.00000000
Si       1.36010097      -1.35268902      -1.35759594       0.00000000
Si      -1.35186800       1.36024758      -1.36094589       0.00000000
Si       1.35881406       1.35913986       1.35721604       0.00000000
Si       0.00394218      -2.72426400      -2.68697280       0.00000000
Si      -2.71218693      -2.71246665      -0.00013814       0.00000000
Si      -2.71286764       0.00097740       2.71432848       0.00000000
Si       0.00172674      -2.71306566       2.71450116       0.00000000
Si       2.71581993      -2.71346448      -0.00058711       0.00000000
Si       2.71524978       2.71415835      -0.00024175       0.00000000
