10
Lattice="16.28999089631971 0.0 0.0 0.0 16.28999089631971 0.0 0.0 0.0 34.53561885213415" Properties=species:S:1:pos:R:3:initial_magmoms:R:1 pbc="T T T"
Si       1.35514229       1.35770634      -1.35659440       0.00000000
Si      -1.35707368      -1.35832536      -1.35666347       0.00000000
Si       1.35717854      -1.35783666       1.35780315       0.00000000
Si      -1.35822968       1.35751086       1.35783769       0.00000000
Si       0.00010914       2.71246419      -2.71263623       0.00000000
Si       2.71380974      -0.00109143       2.71470837       0.00000000
Si      -0.00025575       2.71476108       2.71412127       0.00000000
Si       2.71473827       2.71423980       0.00041443       0.00000000
Si      -2.71498655       2.71417464      -0.00044896       0.00000000
Si       2.71475456      -2.71510317      -0.00044896       0.00000000
