10
Lattice="16.28999089631971 0.0 0.0 0.0 16.28999089631971 0.0 0.0 0.0 34.53561885213415" Properties=species:S:1:pos:R:3:initial_magmoms:R:1 pbc="T T T"
Si      -1.35797393      -1.35725022      -1.35628358       0.00000000
Si       1.35790671       1.35779624      -1.35669801       0.00000000
Si      -1.35752945       1.35545832       1.36149846       0.00000000
Si       1.35850944      -1.35658233       1.36156753       0.00000000
Si      -2.71258052      -0.01273878       2.70503839       0.00000000
Si       2.69137353       0.00322542       2.73118187       0.00000000
Si       0.00019874       2.71470636      -2.71363777       0.00000000
Si       2.71499403      -0.00052128      -2.71370684       0.00000000
Si       0.00025575      -2.71476108      -2.71412127       0.00000000
Si      -2.71473080      -0.00058644      -2.71457023       0.00000000
