10
Lattice="16.28999089631971 0.0 0.0 0.0 16.28999089631971 0.0 0.0 0.0 34.53561885213415" Properties=species:S:1:pos:R:3:initial_magmoms:R:1 pbc="T T T"
Si      -1.01253820      -1.79839971      -1.24739271       0.00000000
Si       0.33473018      -1.20743109       2.06388427       0.00000000
Si       1.87006594       0.93518080      -1.21106122       0.00000000
Si      -1.81628680       1.85858867      -0.27545625       0.00000000
Si      -0.01086543       1.32661917       2.42516158       0.00000000
Si      -2.18615125      -0.43077276      -2.75438982       0.00000000
Si       0.53971702       2.30971905      -2.71805833       0.00000000
Si      -2.26049881       2.10916960       1.99291354       0.00000000
Si      -2.87938849      -2.61879669       0.12947411       0.00000000
Si      -3.62294554       0.79060257      -1.39344393       0.00000000
