10
Lattice="16.28999089631971 0.0 0.0 0.0 16.28999089631971 0.0 0.0 0.0 34.49183129400761" Properties=species:S:1:pos:R:3:initial_magmoms:R:1 pbc="T T T"
Si       1.36818896      -1.32100171       1.35846153       0.00000000
Si      -1.34024250      -1.35915193      -1.36032409       0.00000000
Si       1.37349950       1.35832047      -1.35621956       0.00000000
Si      -1.40336625       1.31953398       1.44286309       0.00000000
Si       2.18164640       0.49807815       2.64493858       0.00000000
Si       0.25766708       2.42458242       2.82515850       0.00000000
Si      -0.19497175      -2.52090586       2.77455895       0.00000000
Si      -2.69250798      -2.71539217       0.01083044       0.00000000
Si      -2.69591259      -0.00172837      -2.71537094       0.00000000
Si      -2.69511438       2.71948029       0.01417615       0.00000000
