10
Lattice="16.28999089631971 0.0 0.0 0.0 16.28999089631971 0.0 0.0 0.0 34.49183129400761" Properties=species:S:1:pos:R:3:initial_magmoms:R:1 pbc="T T T"
Si      -1.36818896       1.32100171      -1.35846153       0.00000000
Si       0.81345744       1.81907986       1.28647704       0.00000000
Si       1.38210876      -1.39266372      -1.33918059       0.00000000
Si      -1.56316071      -1.19990415       1.41609742       0.00000000
Si      -0.24511563      -2.43874236       2.88289785       0.00000000
Si       0.00531054       2.67932219      -2.71468110       0.00000000
Si      -2.77155521       2.64053570       0.08440156       0.00000000
Si      -2.70843146      -0.03815022      -2.71878563       0.00000000
Si       2.71888245      -0.03768920      -2.71350838       0.00000000
Si       0.00291591      -2.75193390      -2.71226667       0.00000000
