10
Lattice="16.28999089631971 0.0 0.0 0.0 16.28999089631971 0.0 0.0 0.0 34.49183129400761" Properties=species:S:1:pos:R:3:initial_magmoms:R:1 pbc="T T T"
Si       2.24973045       0.44009064      -0.32191244       0.00000000
Si      -0.91245177       0.86801265      -2.00542518       0.00000000
Si      -0.25073568       1.30320000       1.97165765       0.00000000
Si      -0.41405922      -2.37800510       0.00186256       0.00000000
Si      -3.17842335       0.76657482      -1.22080456       0.00000000
Si       3.02547654       0.36017190       1.88456573       0.00000000
Si       1.23196383       0.15187167       3.42976615       0.00000000
Si      -2.68322364      -2.52168290       0.61481724       0.00000000
Si      -2.43934605       0.84980043       2.71619874       0.00000000
Si       3.25770678      -1.30056754      -1.61611566       0.00000000
