10
Lattice="16.28999089631971 0.0 0.0 0.0 16.28999089631971 0.0 0.0 0.0 34.49183129400761" Properties=species:S:1:pos:R:3:initial_magmoms:R:1 pbc="T T T"
Si      -1.69254729      -1.23564555       1.29430669       0.00000000
Si       1.39031892       1.95211915      -0.59315635       0.00000000
Si       0.53745597      -1.46070819      -1.96289672       0.00000000
Si       1.70746893       0.73458175       1.84796988       0.00000000
Si      -2.28450960       1.26369561      -0.33677843       0.00000000
Si      -3.69817209      -0.46397196       0.44518632       0.00000000
Si       0.04929354       3.89287717       0.08140077       0.00000000
Si       1.47416355       0.03781886      -3.60922724       0.00000000
Si       2.56155363      -2.89931067      -0.66631357       0.00000000
Si       2.89864260       1.36888991      -2.28156693       0.00000000
