10
Lattice="16.28999089631971 0.0 0.0 0.0 16.28999089631971 0.0 0.0 0.0 34.49183129400761" Properties=species:S:1:pos:R:3:initial_magmoms:R:1 pbc="T T T"
Si      -0.74284029       2.13247503      -0.53507208       0.00000000
Si       2.17323261       0.12196323       0.87343713       0.00000000
Si      -1.27307979      -0.20352726       1.96603548       0.00000000
Si      -0.14718015      -1.17643122      -2.12424960       0.00000000
Si       0.81826299       2.57036652      -2.25704323       0.00000000
Si       2.39041089      -1.96676175       1.91564289       0.00000000
Si      -3.55674231      -0.00454491       1.43292944       0.00000000
Si       2.56564242       0.95588091      -2.69819399       0.00000000
Si       3.75347664      -0.02619432      -0.83994555       0.00000000
Si      -1.62987966      -0.02510289      -3.58235809       0.00000000
