10
Lattice="16.28999089631971 0.0 0.0 0.0 16.28999089631971 0.0 0.0 0.0 34.49183129400761" Properties=species:S:1:pos:R:3:initial_magmoms:R:1 pbc="T T T"
Si      -0.76450599       1.08265458       1.92802546       0.00000000
Si      -0.38120229       1.67249919      -1.63263725       0.00000000
Si      -1.30069134      -1.85248481      -0.75616484       0.00000000
Si       2.35786347      -0.10024214       0.41500595       0.00000000
Si       0.51818490      -3.29512721      -0.90965358       0.00000000
Si      -1.84078629      -0.78062983       2.89359033       0.00000000
Si      -0.09857079       3.58732353      -0.18015094       0.00000000
Si       3.28228839      -0.09073530      -1.68302985       0.00000000
Si      -3.12284187      -2.10346484       0.75330202       0.00000000
Si       2.26634625      -2.23826459      -2.16429464       0.00000000
