10
Lattice="16.28999089631971 0.0 0.0 0.0 16.28999089631971 0.0 0.0 0.0 34.49183129400761" Properties=species:S:1:pos:R:3:initial_magmoms:R:1 pbc="T T T"
Si      -1.81381005      -1.29350745      -0.91644847       0.00000000
Si      -1.37106414       1.28414070       1.60676837       0.00000000
Si       1.64906928      -1.20488985       1.39436755       0.00000000
Si       1.01076192       1.35166275      -2.22693184       0.00000000
Si      -2.28633408       2.05970760      -0.37285690       0.00000000
Si      -1.14787485       1.21116150      -3.02462487       0.00000000
Si       3.38771727       1.17379224       0.01162375       0.00000000
Si       2.02417911       2.94427089      -0.62820007       0.00000000
Si       1.30855941      -2.47640417      -2.42946799       0.00000000
Si      -3.57858720       0.32348682      -1.19103809       0.00000000
