10
Lattice="16.28999089631971 0.0 0.0 0.0 16.28999089631971 0.0 0.0 0.0 34.49183129400761" Properties=species:S:1:pos:R:3:initial_magmoms:R:1 pbc="T T T"
Si       1.35413883      -1.35255870      -1.35680593       0.00000000
Si      -1.35759231      -1.34522820       1.36756738       0.00000000
Si      -1.35734796       1.36277253      -1.35528828       0.00000000
Si       1.37580453       1.35482301       1.38201947       0.00000000
Si      -0.09589923       2.54917323       2.80284227       0.00000000
Si       2.71016730      -2.71140534       0.00517378       0.00000000
Si      -0.00224802      -2.71086777      -2.71374982       0.00000000
Si       2.71238274       0.00373041      -2.71343939       0.00000000
Si      -2.71837746      -2.70853830       0.00241443       0.00000000
Si      -2.71705797       0.00379557      -2.71354287       0.00000000
