10
Lattice="16.28999089631971 0.0 0.0 0.0 16.28999089631971 0.0 0.0 0.0 34.49183129400761" Properties=species:S:1:pos:R:3:initial_magmoms:R:1 pbc="T T T"
Si      -0.01322748      -2.28351591       0.80876491       0.00000000
Si      -1.55813850       1.40017437       1.58862565       0.00000000
Si       2.49875568      -1.29380067      -0.56849468       0.00000000
Si       0.16781958       1.08812313      -2.65673479       0.00000000
Si       2.06381268      -0.56265660      -2.83930016       0.00000000
Si      -2.27919906      -2.38495374       1.59338553       0.00000000
Si      -0.58948623       3.53282859       1.38667587       0.00000000
Si       3.62589336      -0.57228399       1.52888577       0.00000000
Si       2.75048505       1.34187246       2.64048913       0.00000000
Si       0.16495254      -3.92298224      -0.98667388       0.00000000
