10
Lattice="16.28999089631971 0.0 0.0 0.0 16.28999089631971 0.0 0.0 0.0 34.49183129400761" Properties=species:S:1:pos:R:3:initial_magmoms:R:1 pbc="T T T"
Si       2.15863677       0.14050125       0.79769303       0.00000000
Si      -0.37763478       2.18307177      -0.70477198       0.00000000
Si      -0.28263150      -1.91482434      -1.45248632       0.00000000
Si      -1.13845923       0.84854610       2.65176796       0.00000000
Si      -2.43071235      -0.88767468       1.83358678       0.00000000
Si      -3.24395802      -0.24384501      -0.27617625       0.00000000
Si      -0.66593520      -2.50466895       2.10817640       0.00000000
Si       1.14787485      -1.21116150       3.02462487       0.00000000
Si      -2.68705179       1.97599329      -0.94431788       0.00000000
Si       0.85242312       2.22391080      -2.64721504       0.00000000
