10
Lattice="16.28999089631971 0.0 0.0 0.0 16.28999089631971 0.0 0.0 0.0 34.49183129400761" Properties=species:S:1:pos:R:3:initial_magmoms:R:1 pbc="T T T"
Si      -1.19250945      -1.32352992       1.64246885       0.00000000
Si      -1.70316837       1.02205089      -1.43261901       0.00000000
Si       1.01947707      -1.24354602      -1.98203970       0.00000000
Si       1.54857627       1.49423283       1.60645936       0.00000000
Si      -2.37576618      -2.90367621       0.25292874       0.00000000
Si      -2.39189328       2.94757776      -0.04880597       0.00000000
Si      -2.44180584       0.09568746       3.11979275       0.00000000
Si       2.68089417       0.20069280      -2.98882233       0.00000000
Si       2.38301523      -3.01402467      -1.34221587       0.00000000
Si       0.26275770      -2.61474048       3.12546321       0.00000000
