10
Lattice="16.28999089631971 0.0 0.0 0.0 16.28999089631971 0.0 0.0 0.0 34.49183129400761" Properties=species:S:1:pos:R:3:initial_magmoms:R:1 pbc="T T T"
Si       1.91137086       0.10832850       1.26278114       0.00000000
Si       0.51339564      -0.32882994      -2.21999898       0.00000000
Si      -1.55771496       1.76015079      -0.06836285       0.00000000
Si      -0.30014325      -0.95915520       2.44947326       0.00000000
Si      -3.01488804      -0.23319135      -0.05518696       0.00000000
Si      -2.68068240      -0.72648513       2.30578021       0.00000000
Si       2.44408644       2.41911387       1.50650056       0.00000000
Si      -1.17770184      -1.47312099      -3.31701229       0.00000000
Si       1.63496214       1.40359527      -3.38440936       0.00000000
Si      -1.46891817       3.28191372       1.93833853       0.00000000
