10
Lattice="16.28999089631971 0.0 0.0 0.0 16.28999089631971 0.0 0.0 0.0 34.49183129400761" Properties=species:S:1:pos:R:3:initial_magmoms:R:1 pbc="T T T"
Si       0.09782145      -1.80797823       1.48401187       0.00000000
Si       1.83436803      -0.88443297      -1.24091331       0.00000000
Si      -1.89076401      -0.05203026      -1.48987549       0.00000000
Si       0.60334902       2.08277424       1.08004332       0.00000000
Si       2.38586598      -1.85207526       1.99842333       0.00000000
Si      -0.50699367      -3.61071108       0.17763303       0.00000000
Si       1.05410961      -3.17281959      -1.54433812       0.00000000
Si      -1.45793871       1.53645651      -3.17369865       0.00000000
Si       1.02021012       3.60878886      -0.71967246       0.00000000
Si      -3.91764726       0.25834311      -0.30628763       0.00000000
