10
Lattice="16.28999089631971 0.0 0.0 0.0 16.28999089631971 0.0 0.0 0.0 34.49183129400761" Properties=species:S:1:pos:R:3:initial_magmoms:R:1 pbc="T T T"
Si      -0.38604042      -2.31883752       0.00482886       0.00000000
Si       2.18861037       0.45339957      -0.74454109       0.00000000
Si      -1.29332989       0.95521302      -1.73776842       0.00000000
Si      -0.48928644       1.02628629       2.07813400       0.00000000
Si       0.74802051       2.96639271       1.80640720       0.00000000
Si       2.43934605      -0.84980043      -2.71619874       0.00000000
Si      -0.68577642       3.30245541      -1.70141400       0.00000000
Si      -2.56239582      -2.67570743       0.82594185       0.00000000
Si       3.67130988      -0.69792876       0.71356740       0.00000000
Si      -3.59327168       0.63188910      -1.09373658       0.00000000
