10
Lattice="16.28999089631971 0.0 0.0 0.0 16.28999089631971 0.0 0.0 0.0 34.49183129400761" Properties=species:S:1:pos:R:3:initial_magmoms:R:1 pbc="T T T"
Si      -1.53650538       1.23211044       1.35666796       0.00000000
Si       0.41686110       1.52601462      -1.79971578       0.00000000
Si      -0.60334902      -2.08277424      -1.08004332       0.00000000
Si       1.66338819      -0.40925367       1.72724840       0.00000000
Si      -1.92577122      -0.20388564       3.22553990       0.00000000
Si       3.71773638      -0.06628401       0.73222750       0.00000000
Si      -3.59789085       1.45903014       0.17628785       0.00000000
Si      -1.51226586       1.56344904      -3.24733875       0.00000000
Si      -0.50552757      -3.89075247       0.40396855       0.00000000
Si       1.23101901      -2.96720721      -2.32095662       0.00000000
