10
Lattice="16.28999089631971 0.0 0.0 0.0 16.28999089631971 0.0 0.0 0.0 34.49183129400761" Properties=species:S:1:pos:R:3:initial_magmoms:R:1 pbc="T T T"
Si      -2.20242429      -0.45970380       0.64261767       0.00000000
Si       1.72504584      -1.12050765       1.12129557       0.00000000
Si       0.41870187       2.30979887      -0.15445451       0.00000000
Si       0.03762990      -1.33999911      -1.95865423       0.00000000
Si      -0.57888144      -3.41435142      -0.91020544       0.00000000
Si      -2.42295831      -2.79394677       0.31787689       0.00000000
Si       1.35024552      -3.45178584       0.53741752       0.00000000
Si       2.21221458       2.51809910      -1.69965492       0.00000000
Si      -1.22732118      -0.22007790      -3.58235809       0.00000000
Si      -3.63864843       0.68889011      -0.86319305       0.00000000
