10
Lattice="16.28999089631971 0.0 0.0 0.0 16.28999089631971 0.0 0.0 0.0 34.49183129400761" Properties=species:S:1:pos:R:3:initial_magmoms:R:1 pbc="T T T"
Si      -1.72504584       1.12050765      -1.12129557       0.00000000
Si       0.21530493       0.49244670       2.28287762       0.00000000
Si       2.06625618       0.83624715      -0.92217412       0.00000000
Si      -0.37480032      -2.33127819      -0.58387805       0.00000000
Si       1.35405738      -2.32658667      -2.18440339       0.00000000
Si       3.09382938      -1.20932073      -1.09518524       0.00000000
Si      -1.68741594      -0.21949146      -3.07994980       0.00000000
Si       1.94471649      -0.92020581       3.06132420       0.00000000
Si       3.18744801      -1.74741201       1.20197201       0.00000000
Si      -2.30392728      -2.29384377      -2.03150101       0.00000000
