10
Lattice="16.28999089631971 0.0 0.0 0.0 16.28999089631971 0.0 0.0 0.0 34.49183129400761" Properties=species:S:1:pos:R:3:initial_magmoms:R:1 pbc="T T T"
Si       0.78462414       1.21780782       1.82627450       0.00000000
Si      -0.71540793       0.82503963      -2.10786597       0.00000000
Si       1.81135026      -1.14082128      -1.08325106       0.00000000
Si      -1.99868526      -1.24007625       0.73705635       0.00000000
Si       2.38177719       2.47735062       0.46194935       0.00000000
Si      -1.89998415      -2.67172290      -1.20400703       0.00000000
Si      -1.51071831      -1.23572682      -3.07287897       0.00000000
Si       1.65527577      -0.29695041       3.35033141       0.00000000
Si       2.76216498       0.46924974      -2.58406046       0.00000000
Si       3.39623694      -1.14515442       1.33269612       0.00000000
