10
Lattice="16.28999089631971 0.0 0.0 0.0 16.28999089631971 0.0 0.0 0.0 34.49183129400761" Properties=species:S:1:pos:R:3:initial_magmoms:R:1 pbc="T T T"
Si       1.35684297      -1.35762978      -1.35725432       0.00000000
Si      -1.35783666       1.35716877      -1.35732330       0.00000000
Si       1.35806472       1.35671265       1.35797865       0.00000000
Si      -1.35840681      -1.35868374       1.35746127       0.00000000
Si      -0.00024435       2.71464705      -2.71419821       0.00000000
Si       2.71438641      -0.00047241      -2.71468110       0.00000000
Si       2.71477737       2.71458189       0.00006898       0.00000000
Si      -0.00184077      -2.71469654      -2.71468110       0.00000000
Si      -2.71487511      -0.00184077      -2.71481907       0.00000000
Si      -2.71541268       2.71479366       0.00034492       0.00000000
