10
Lattice="16.28999089631971 0.0 0.0 0.0 16.28999089631971 0.0 0.0 0.0 34.49183129400761" Properties=species:S:1:pos:R:3:initial_magmoms:R:1 pbc="T T T"
Si      -0.92442492      -0.00950684       2.09803579       0.00000000
Si      -0.21717828       2.08872498      -1.04220576       0.00000000
Si       2.30578434      -0.49406918      -0.10958061       0.00000000
Si      -1.01594214      -2.14752929      -0.48126479       0.00000000
Si       2.19569652      -0.31586147      -2.50586744       0.00000000
Si       2.09600172      -2.17128011       1.57086235       0.00000000
Si       1.36306575       1.94056743      -2.75558843       0.00000000
Si      -2.39041089       1.96676175      -1.91564289       0.00000000
Si       0.71346942      -3.56018180       0.29718178       0.00000000
Si      -3.28228839       0.09073530       1.68302985       0.00000000
