10
Lattice="16.28999089631971 0.0 0.0 0.0 16.28999089631971 0.0 0.0 0.0 34.49183129400761" Properties=species:S:1:pos:R:3:initial_magmoms:R:1 pbc="T T T"
Si      -1.30346033       0.96194079      -1.67313069       0.00000000
Si      -0.02406652      -2.32895687       0.26058593       0.00000000
Si      -0.80487230       1.23861015       1.86397410       0.00000000
Si       2.33664509       0.18283896      -0.48826664       0.00000000
Si       1.79549129      -2.28118807       1.72790375       0.00000000
Si      -0.08933405       3.31711641       0.84591264       0.00000000
Si       3.08767925      -0.36948978       1.70434581       0.00000000
Si      -3.06600575       0.47715039       1.73707858       0.00000000
Si      -0.66823178       3.20447106      -1.45396947       0.00000000
Si      -3.57270620       0.50655384      -0.66096733       0.00000000
