10
Lattice="16.28999089631971 0.0 0.0 0.0 16.28999089631971 0.0 0.0 0.0 34.49183129400761" Properties=species:S:1:pos:R:3:initial_magmoms:R:1 pbc="T T T"
Si       0.92442492       0.00950684      -2.09803579       0.00000000
Si       1.25750655      -1.54257408       1.24515581       0.00000000
Si      -2.35786347       0.10024214      -0.41500595       0.00000000
Si      -0.09151722      -2.13802245      -2.57930059       0.00000000
Si       2.23627491       0.15969902       2.65118160       0.00000000
Si      -3.12236946       1.18289672       1.51301952       0.00000000
Si      -1.30855941       2.47640417       2.42946799       0.00000000
Si       3.02042664      -2.16177327      -0.52717344       0.00000000
Si       0.70724664       2.09823182      -3.14024155       0.00000000
Si      -0.33964650      -2.80211688       2.60948095       0.00000000
