10
Lattice="16.28999089631971 0.0 0.0 0.0 16.28999089631971 0.0 0.0 0.0 34.49183129400761" Properties=species:S:1:pos:R:3:initial_magmoms:R:1 pbc="T T T"
Si       1.35399222      -1.35544203       1.36294548       0.00000000
Si      -1.36089918       1.35967743       1.36197970       0.00000000
Si      -1.37969784      -1.34605899      -1.37128905       0.00000000
Si       1.34695494       1.37114559      -1.38188840       0.00000000
Si       2.70990666      -2.71292031      -0.00003449       0.00000000
Si       2.71360449       2.71603170       0.00220748       0.00000000
Si      -2.71948518      -2.71094922       0.00272486       0.00000000
Si       2.71199178       0.00234576       2.71985488       0.00000000
Si      -0.00360009      -2.71292031       2.71982038       0.00000000
Si      -2.71684620       2.71702539       0.00065535       0.00000000
