10
Lattice="16.28999089631971 0.0 0.0 0.0 16.28999089631971 0.0 0.0 0.0 34.49183129400761" Properties=species:S:1:pos:R:3:initial_magmoms:R:1 pbc="T T T"
Si      -1.35824391      -1.35628911       1.35663347       0.00000000
Si      -1.35757602       1.35759231      -1.35749576       0.00000000
Si       1.35757602      -1.35762489      -1.35766822       0.00000000
Si       1.35679410       1.35920502       1.35822009       0.00000000
Si      -2.71238274      -0.00373041       2.71343939       0.00000000
Si      -2.71463076      -2.71459818      -0.00031043       0.00000000
Si      -2.71451673       2.71508688      -0.00027593       0.00000000
Si      -2.71428867       0.00009774      -2.71533644       0.00000000
Si       2.71516833      -0.00014661      -2.71454313       0.00000000
Si       2.71541268      -2.71479366      -0.00034492       0.00000000
