10
Lattice="16.28999089631971 0.0 0.0 0.0 16.28999089631971 0.0 0.0 0.0 34.49183129400761" Properties=species:S:1:pos:R:3:initial_magmoms:R:1 pbc="T T T"
Si      -0.61209675       1.91119167       1.15961602       0.00000000
Si       0.87495219       0.88356960      -2.05229960       0.00000000
Si      -2.20828869      -0.79817742      -0.56187225       0.00000000
Si       1.34833959      -1.62386865       1.24619056       0.00000000
Si      -1.33288038      -2.71233387      -1.67347561       0.00000000
Si      -1.08188406       0.89547759       3.21222604       0.00000000
Si      -1.86214248      -1.39290903       2.90880123       0.00000000
Si      -2.48578884       2.79163359      -0.05967090       0.00000000
Si      -0.95620671       2.22759234      -2.85868458       0.00000000
Si      -3.16772082       1.16010864      -1.67199246       0.00000000
