10
Lattice="16.28999089631971 0.0 0.0 0.0 16.28999089631971 0.0 0.0 0.0 34.49183129400761" Properties=species:S:1:pos:R:3:initial_magmoms:R:1 pbc="T T T"
Si       0.56615895       2.06788518      -1.21659655       0.00000000
Si      -0.09273897      -2.36105631      -0.75043919       0.00000000
Si      -2.39782284       0.21035277       0.62478538       0.00000000
Si       1.35252612      -0.33449886       2.16833019       0.00000000
Si       2.93640282       2.10525444      -0.97229078       0.00000000
Si       0.28339713       1.29881799       3.54445155       0.00000000
Si      -2.87476146      -1.92880116       1.58817726       0.00000000
Si      -0.18999027       3.80625624       0.24596139       0.00000000
Si      -3.52496052      -0.51116391      -1.47259507       0.00000000
Si      -1.06494246       2.92268664       2.29826099       0.00000000
