10
Lattice="16.28999089631971 0.0 0.0 0.0 16.28999089631971 0.0 0.0 0.0 34.49183129400761" Properties=species:S:1:pos:R:3:initial_magmoms:R:1 pbc="T T T"
Si      -1.34951247      -1.36098063       1.37560743       0.00000000
Si       1.36371735       1.35529542       1.37805636       0.00000000
Si       1.27345446      -1.31509170      -1.51534082       0.00000000
Si      -1.21814991       1.38057750      -1.54391042       0.00000000
Si       0.55974069       2.49957018      -2.77156993       0.00000000
Si      -2.70112635       2.71125873      -0.01790127       0.00000000
Si       2.71428867      -2.70686043      -0.00693631       0.00000000
Si      -2.71692765      -2.71363707      -0.00200743       0.00000000
Si       2.73297330       2.70857088       0.01937062       0.00000000
Si      -2.70886410      -0.00306252       2.73717323       0.00000000
