10
Lattice="16.28999089631971 0.0 0.0 0.0 16.28999089631971 0.0 0.0 0.0 34.49183129400761" Properties=species:S:1:pos:R:3:initial_magmoms:R:1 pbc="T T T"
Si       1.41571503       1.11141783      -1.48214038       0.00000000
Si      -1.34490240      -1.15689951      -1.54067305       0.00000000
Si       1.45003806      -1.27272141       1.36449071       0.00000000
Si      -1.26807876       1.45362186       1.39113222       0.00000000
Si      -0.18863820       2.33829918      -2.84267143       0.00000000
Si      -2.72759760      -2.57004072      -0.14357923       0.00000000
Si       0.07988616      -2.61692334       2.74892116       0.00000000
Si      -2.63733471       0.10034640       2.74981795       0.00000000
Si      -1.70035020       0.39641715      -3.41744363       0.00000000
Si       2.71259451       2.71606428      -0.17822629       0.00000000
