10
Lattice="16.28999089631971 0.0 0.0 0.0 16.28999089631971 0.0 0.0 0.0 34.49183129400761" Properties=species:S:1:pos:R:3:initial_magmoms:R:1 pbc="T T T"
Si       0.46978731       1.01571408      -2.05261003       0.00000000
Si      -1.83436803       0.88443297       1.24091331       0.00000000
Si       1.92824730      -0.50873670       1.32000312       0.00000000
Si      -0.78025842      -2.28838662      -0.30342481       0.00000000
Si      -1.73654658      -0.92354526       2.72492518       0.00000000
Si       0.55149795      -0.96764229       3.23933664       0.00000000
Si       1.08188406      -0.89547759      -3.21222604       0.00000000
Si      -3.72513204       0.83240271      -0.24896218       0.00000000
Si      -2.34136170      -2.72627811       1.41854634       0.00000000
Si       3.44821833      -1.94680161       0.11089130       0.00000000
