10
Lattice="16.28999089631971 0.0 0.0 0.0 16.28999089631971 0.0 0.0 0.0 34.49183129400761" Properties=species:S:1:pos:R:3:initial_magmoms:R:1 pbc="T T T"
Si       1.95510951      -0.77968827      -1.08087112       0.00000000
Si      -1.66141710      -1.44423882       1.00678263       0.00000000
Si      -1.78499304       0.45993186      -1.63784552       0.00000000
Si       1.59532857       1.37744982       1.77805490       0.00000000
Si       3.04733772      -1.60246359       0.96049456       0.00000000
Si      -0.29787894      -3.21471747       1.64660645       0.00000000
Si       1.16913330      -2.93953050      -1.84728004       0.00000000
Si       1.68648741      -3.50438625       0.42656072       0.00000000
Si       2.69762400       0.73837683      -2.79408134       0.00000000
Si      -2.68089417      -0.20069280       2.98882233       0.00000000
