10
Lattice="16.28999089631971 0.0 0.0 0.0 16.28999089631971 0.0 0.0 0.0 34.49183129400761" Properties=species:S:1:pos:R:3:initial_magmoms:R:1 pbc="T T T"
Si      -1.41362991       1.29824784       1.27506024       0.00000000
Si       1.34433225       1.36866951      -1.33924957       0.00000000
Si      -1.36423863      -1.34934957      -1.33990492       0.00000000
Si       1.30494303      -1.31483106       1.46393761       0.00000000
Si       2.02820274       0.56643588       2.69795255       0.00000000
Si      -0.57529764      -2.05485318       2.73085778       0.00000000
Si      -2.28442815      -0.37895427       2.60085799       0.00000000
Si       0.23436423       2.34505953       2.62207048       0.00000000
Si       2.70291825       0.01215234      -2.69674534       0.00000000
Si      -0.01114236      -2.70197343      -2.69784908       0.00000000
