10
Lattice="16.28999089631971 0.0 0.0 0.0 16.28999089631971 0.0 0.0 0.0 34.49183129400761" Properties=species:S:1:pos:R:3:initial_magmoms:R:1 pbc="T T T"
Si       1.41362991      -1.29824784      -1.27506024       0.00000000
Si      -0.87079824      -1.67720211       1.32579775       0.00000000
Si      -1.31167080       1.42570080      -1.27295624       0.00000000
Si       1.64799414       1.04681169       1.34701024       0.00000000
Si      -1.38173409      -0.11140731       3.10702590       0.00000000
Si       0.04939128      -2.64759741      -2.61496516       0.00000000
Si      -2.67103872       0.06915105      -2.61372345       0.00000000
Si       0.83833227      -3.35310102       1.45579754       0.00000000
Si      -2.46912417       2.82572223       0.16411223       0.00000000
Si      -2.66659155      -2.65250070       0.11972121       0.00000000
