10
Lattice="16.28999089631971 0.0 0.0 0.0 16.28999089631971 0.0 0.0 0.0 34.49183129400761" Properties=species:S:1:pos:R:3:initial_magmoms:R:1 pbc="T T T"
Si       0.35544780      -1.55331666       1.87677057       0.00000000
Si       1.51171200       1.94188203       0.57477220       0.00000000
Si       2.16909495      -0.20593818      -1.57793318       0.00000000
Si      -1.74096117       0.84820401       2.01763529       0.00000000
Si      -1.58488668       0.00433314      -2.41594718       0.00000000
Si       1.70039907      -2.88254808       0.45663761       0.00000000
Si      -2.61161280       2.36296224       0.49357838       0.00000000
Si       3.48465906      -1.17503028       0.08809219       0.00000000
Si       3.11606523       0.71500068       1.93530324       0.00000000
Si      -3.39623694       1.14515442      -1.33269612       0.00000000
