10
Lattice="16.28999089631971 0.0 0.0 0.0 16.28999089631971 0.0 0.0 0.0 34.49183129400761" Properties=species:S:1:pos:R:3:initial_magmoms:R:1 pbc="T T T"
Si      -1.25750655       1.54257408      -1.24515581       0.00000000
Si       0.97876836       1.70227309       1.40602580       0.00000000
Si      -1.59715305      -1.25954280       1.36432515       0.00000000
Si       1.76292009      -0.61919919      -1.77232925       0.00000000
Si       1.62919548       0.04670343       2.90790445       0.00000000
Si       2.52617175      -1.68062301       1.44551897       0.00000000
Si      -2.38177719      -2.47735062      -0.46194935       0.00000000
Si       0.38038779      -2.00810088      -3.04600982       0.00000000
Si      -0.33308163       1.55208092      -3.34319160       0.00000000
Si       1.01445975      -3.62250504       0.87074677       0.00000000
