10
Lattice="16.28999089631971 0.0 0.0 0.0 16.28999089631971 0.0 0.0 0.0 34.49183129400761" Properties=species:S:1:pos:R:3:initial_magmoms:R:1 pbc="T T T"
Si      -0.37641303      -0.54206604      -2.21898254       0.00000000
Si      -0.77545287      -1.94655889       1.11816406       0.00000000
Si       2.01289014       0.93559986       0.90930210       0.00000000
Si      -1.77515388       1.71849726       0.01621048       0.00000000
Si      -2.13333840      -0.56169549       2.41406427       0.00000000
Si       0.62393958       2.17805445       2.39899823       0.00000000
Si      -2.57232132      -1.71505030      -1.87820306       0.00000000
Si      -0.74507202       1.48577832      -3.30833866       0.00000000
Si      -0.64534464       3.58603173       1.03042024       0.00000000
Si      -3.57200604       0.70074693       1.06335306       0.00000000
