10
Lattice="16.28999089631971 0.0 0.0 0.0 16.28999089631971 0.0 0.0 0.0 34.49183129400761" Properties=species:S:1:pos:R:3:initial_magmoms:R:1 pbc="T T T"
Si      -1.35682668      -1.35761017       1.35701288       0.00000000
Si       1.35729909      -1.35790339      -1.35746127       0.00000000
Si      -1.35826020       1.35754417      -1.35728881       0.00000000
Si       1.35930276       1.35765006       1.35701288       0.00000000
Si       2.71497285       0.00022649       2.71205972       0.00000000
Si       0.00016290      -2.71479523      -2.71343939       0.00000000
Si      -2.71500543      -0.00089752       2.71437067       0.00000000
Si      -0.00071676       2.71470154      -2.71471559       0.00000000
Si       2.71493399      -2.71468120       0.00017246       0.00000000
Si       2.71498785       2.71473412       0.00027593       0.00000000
