10
Lattice="16.28999089631971 0.0 0.0 0.0 16.28999089631971 0.0 0.0 0.0 34.49183129400761" Properties=species:S:1:pos:R:3:initial_magmoms:R:1 pbc="T T T"
Si      -1.33649676       1.34681941      -1.39098735       0.00000000
Si      -1.08916569      -1.75511003       1.20100624       0.00000000
Si       1.38508983      -1.37257196      -1.39226355       0.00000000
Si       1.06311798       1.59837610       1.46407558       0.00000000
Si       2.67423156       2.66235420       0.03976910       0.00000000
Si      -2.53154745       2.83944279       0.02745551       0.00000000
Si       0.70467282      -3.53373368       1.27688831       0.00000000
Si       2.66473449      -2.76344474       0.07139813       0.00000000
Si      -2.69262297      -0.01745573      -2.76110713       0.00000000
Si       0.02269197       2.69747544      -2.75793388       0.00000000
