10
Lattice="16.28999089631971 0.0 0.0 0.0 16.28999089631971 0.0 0.0 0.0 34.49183129400761" Properties=species:S:1:pos:R:3:initial_magmoms:R:1 pbc="T T T"
Si       1.33325505       1.34420193       1.35909274       0.00000000
Si      -1.26928422       1.40797728      -1.36857799       0.00000000
Si      -1.38403098      -1.37018448       1.35164250       0.00000000
Si       1.38895056      -1.24245459      -1.48969613       0.00000000
Si      -0.62393958      -2.17805445      -2.39899823       0.00000000
Si      -2.39909346      -0.45955719      -2.38278775       0.00000000
Si       2.69347005       2.68892514      -0.03357092       0.00000000
Si       2.68854433      -0.01159848       2.71410509       0.00000000
Si       2.68087788      -2.72679939      -0.03000446       0.00000000
Si      -0.02430468       2.70189198       2.71462246       0.00000000
