10
Lattice="16.28999089631971 0.0 0.0 0.0 16.28999089631971 0.0 0.0 0.0 34.49183129400761" Properties=species:S:1:pos:R:3:initial_magmoms:R:1 pbc="T T T"
Si       1.35671265       1.35786924      -1.35790967       0.00000000
Si      -1.35806472      -1.35671265      -1.35797865       0.00000000
Si       1.35734796      -1.35785295       1.35959977       0.00000000
Si      -1.36054080       1.35949824       1.35970324       0.00000000
Si      -0.00122175      -2.71434243      -2.71523297       0.00000000
Si       2.71409319       0.00104256      -2.71561238       0.00000000
Si       2.71634121      -2.71423654      -0.00093128       0.00000000
Si       2.71466334       2.71630863      -0.00093128       0.00000000
Si      -0.00030951       2.71572219      -2.71526746       0.00000000
Si      -2.71590138       0.00045612      -2.71530195       0.00000000
