10
Lattice="16.28999089631971 0.0 0.0 0.0 16.28999089631971 0.0 0.0 0.0 34.49183129400761" Properties=species:S:1:pos:R:3:initial_magmoms:R:1 pbc="T T T"
Si       2.32097381       0.29335032      -0.34057253       0.00000000
Si      -0.57889773      -0.11264535      -2.29988210       0.00000000
Si      -0.66127626       1.87533738       1.33390334       0.00000000
Si      -0.71553825      -2.07850626       1.01806146       0.00000000
Si       0.08933405      -3.31711641      -0.84591264       0.00000000
Si       3.05625554       0.00522909       1.89970765       0.00000000
Si      -1.21412628      -2.35517562      -2.51904332       0.00000000
Si       2.58026174       2.31946794      -1.59348900       0.00000000
Si      -3.01558851       1.94496084       1.43958637       0.00000000
Si       0.07850365       3.94639911       0.47991961       0.00000000
