10
Lattice="16.28999089631971 0.0 0.0 0.0 16.28999089631971 0.0 0.0 0.0 34.49183129400761" Properties=species:S:1:pos:R:3:initial_magmoms:R:1 pbc="T T T"
Si       1.34084619       1.35707103      -1.37415533       0.00000000
Si      -1.24796256       1.43782056       1.39205660       0.00000000
Si      -1.37110376      -1.35954711      -1.37232726       0.00000000
Si       1.43345484      -1.33147944       1.46738680       0.00000000
Si      -2.56022504       0.01938510       2.77442098       0.00000000
Si       0.37931265       2.68179012       2.65721768       0.00000000
Si       2.70187569      -2.70627399      -0.00931280       0.00000000
Si       2.70941796       2.70609480      -0.00786414       0.00000000
Si       2.70212004       0.00172674      -2.73216847       0.00000000
Si      -2.72752334      -2.70842427      -0.00407004       0.00000000
