10
Lattice="16.28999089631971 0.0 0.0 0.0 16.28999089631971 0.0 0.0 0.0 34.49183129400761" Properties=species:S:1:pos:R:3:initial_magmoms:R:1 pbc="T T T"
Si      -2.35797750       0.30250530       0.43883981       0.00000000
Si       0.54384069      -1.85898222      -1.61963383       0.00000000
Si       0.31410378       2.32116210      -1.09828951       0.00000000
Si       0.57815721      -1.09911888       2.37328076       0.00000000
Si       2.65504913       2.03030415      -1.09611652       0.00000000
Si       1.66586005      -2.88331371       1.16437589       0.00000000
Si       2.80724660      -1.51622433      -2.18747316       0.00000000
Si      -2.55296880       1.66026051       2.49234663       0.00000000
Si      -3.45020571       1.12528062      -1.60252587       0.00000000
Si      -0.40764096      -1.38012138      -3.73726099       0.00000000
