10
Lattice="16.28999089631971 0.0 0.0 0.0 16.28999089631971 0.0 0.0 0.0 34.49183129400761" Properties=species:S:1:pos:R:3:initial_magmoms:R:1 pbc="T T T"
Si       0.23560227      -2.17662093      -0.78938049       0.00000000
Si      -1.51177716      -0.46312470       1.72207462       0.00000000
Si      -0.70045371       1.25227746      -1.84869421       0.00000000
Si       2.00365371       1.13406093       0.55528430       0.00000000
Si       1.26130212       3.34894707       0.51475638       0.00000000
Si       0.28414647       0.01078398      -3.64296027       0.00000000
Si       2.34626499      -2.83908636      -0.08202162       0.00000000
Si      -0.09042579      -0.78148017       3.65744685       0.00000000
Si      -0.28093734       3.55482009      -1.27433591       0.00000000
Si       1.05508701      -2.11359492      -3.01313908       0.00000000
