10
Lattice="16.28999089631971 0.0 0.0 0.0 16.28999089631971 0.0 0.0 0.0 34.49183129400761" Properties=species:S:1:pos:R:3:initial_magmoms:R:1 pbc="T T T"
Si      -1.31556411       0.96909210      -1.66602537       0.00000000
Si       2.34402986      -0.62693694      -0.50727165       0.00000000
Si      -1.78425999      -1.70751780       0.36854542       0.00000000
Si      -0.36859383       1.89003096       1.84721106       0.00000000
Si      -3.12921126      -0.37828638       1.78867839       0.00000000
Si       3.06714540      -0.95557140       1.78157307       0.00000000
Si      -3.48465906       1.17503028      -0.08809219       0.00000000
Si      -1.97294706       3.11691231       0.48668001       0.00000000
Si      -0.52724214      -3.32967600       1.60449190       0.00000000
Si       1.15659000      -1.89837144       3.09152668       0.00000000
