10
Lattice="16.28999089631971 0.0 0.0 0.0 16.28999089631971 0.0 0.0 0.0 34.49183129400761" Properties=species:S:1:pos:R:3:initial_magmoms:R:1 pbc="T T T"
Si      -1.33553565      -1.36086660       1.37806325       0.00000000
Si       1.38287017       1.35229806       1.37513145       0.00000000
Si       1.35908840      -1.33797915      -1.43564395       0.00000000
Si      -1.41701823       1.25649657      -1.54977403       0.00000000
Si       0.57769131       2.04423210      -2.52733068       0.00000000
Si      -2.66774814       2.69486677       0.01586970       0.00000000
Si       2.40450893       0.45168912      -2.92770764       0.00000000
Si      -2.67957468      -2.73228912      -0.00705703       0.00000000
Si      -2.69382843      -0.00259011       2.73890473       0.00000000
Si       2.73747653      -2.70104490       0.00878163       0.00000000
