10
Lattice="16.28999089631971 0.0 0.0 0.0 16.28999089631971 0.0 0.0 0.0 34.49183129400761" Properties=species:S:1:pos:R:3:initial_magmoms:R:1 pbc="T T T"
Si      -1.34433225      -1.36866951       1.33924957       0.00000000
Si      -1.35524655       1.35733167      -1.35815111       0.00000000
Si       1.35858600      -1.35651717      -1.35749576       0.00000000
Si       1.36428750       1.35892809       1.36805027       0.00000000
Si      -2.75796216      -0.07042167       2.61430981       0.00000000
Si       2.71326240      -2.71254564       0.00013797       0.00000000
Si      -2.70857088      -2.71801908      -0.00065535       0.00000000
Si      -2.71342530       2.71404432      -0.00079331       0.00000000
Si      -2.71353933       0.00003258      -2.71512949       0.00000000
Si       0.00117288      -2.71485882      -2.71502602       0.00000000
