10
Lattice="16.28999089631971 0.0 0.0 0.0 16.28999089631971 0.0 0.0 0.0 34.49183129400761" Properties=species:S:1:pos:R:3:initial_magmoms:R:1 pbc="T T T"
Si      -0.72325971      -1.88126694      -1.23401494       0.00000000
Si      -0.55371339      -0.34344207       2.32071518       0.00000000
Si       1.96006167       0.77028894      -1.20549018       0.00000000
Si      -1.79383851       1.77862365      -0.07588207       0.00000000
Si      -2.02820274      -0.56643588      -2.69795255       0.00000000
Si       0.68041701       2.16116172      -2.66915186       0.00000000
Si      -1.39760055      -2.60703531       2.08334227       0.00000000
Si      -2.60350038      -2.62128906       0.03290523       0.00000000
Si      -2.55684582       1.58816097       2.23514090       0.00000000
Si      -3.44183265       0.73181196      -1.42289231       0.00000000
