10
Lattice="16.28999089631971 0.0 0.0 0.0 16.28999089631971 0.0 0.0 0.0 34.49183129400761" Properties=species:S:1:pos:R:3:initial_magmoms:R:1 pbc="T T T"
Si      -1.41571503      -1.11141783       1.48214038       0.00000000
Si      -1.60435323       1.22688135      -1.36053105       0.00000000
Si       1.29687948       1.60464645       1.30391409       0.00000000
Si       0.36859383      -1.89003096      -1.84721106       0.00000000
Si      -2.76061743      -2.26831734      -0.05853267       0.00000000
Si       0.03432303      -2.38413924       2.84663109       0.00000000
Si      -3.11606523      -0.71500068      -1.93530324       0.00000000
Si      -0.94697028      -0.92093886      -3.51323642       0.00000000
Si      -2.50132950       2.95420779       0.10185443       0.00000000
Si      -2.68379379       0.34220403       2.87327260       0.00000000
