10
Lattice="16.28999089631971 0.0 0.0 0.0 16.28999089631971 0.0 0.0 0.0 34.49183129400761" Properties=species:S:1:pos:R:3:initial_magmoms:R:1 pbc="T T T"
Si       0.66775968       0.39944709      -2.24034917       0.00000000
Si      -1.81427269       1.38538305       0.69094075       0.00000000
Si       1.82011428       0.66694518       1.42161611       0.00000000
Si      -0.60755347      -2.34724239      -0.03635441       0.00000000
Si      -1.59745441       0.47982195      -3.10823311       0.00000000
Si      -1.19325716       3.56490360       0.02104003       0.00000000
Si       3.68196354      -0.53944335       0.62061187       0.00000000
Si       0.68577642      -3.30245541       1.70141400       0.00000000
Si       1.43379693      -0.33606270       3.50782120       0.00000000
Si       1.63641195       2.53210131      -2.44229896       0.00000000
