10
Lattice="16.28999089631971 0.0 0.0 0.0 16.28999089631971 0.0 0.0 0.0 34.49183129400761" Properties=species:S:1:pos:R:3:initial_magmoms:R:1 pbc="T T T"
Si       1.35694071      -1.35736425       1.36097944       0.00000000
Si      -1.35889745       1.35840681       1.36039308       0.00000000
Si       1.35913986       1.37492487      -1.36810891       0.00000000
Si      -1.35426005      -1.37036367      -1.38697250       0.00000000
Si       2.71138905       2.71438641       0.00034492       0.00000000
Si      -2.71387232       2.71510317       0.00117272       0.00000000
Si       2.71551042      -2.71381626      -0.00203502       0.00000000
Si      -2.71447505      -2.71508688       0.00569116       0.00000000
Si       0.00001140      -2.71430496       2.71830274       0.00000000
Si       2.71474479       0.00052128       2.71806130       0.00000000
