10
Lattice="16.28999089631971 0.0 0.0 0.0 16.28999089631971 0.0 0.0 0.0 34.49183129400761" Properties=species:S:1:pos:R:3:initial_magmoms:R:1 pbc="T T T"
Si       1.35224919       1.33946154       1.36845382       0.00000000
Si       1.39957164      -1.23914772      -1.44468081       0.00000000
Si      -1.35913986      -1.37492487       1.36810891       0.00000000
Si      -1.37838812       1.36306575      -1.44442557       0.00000000
Si      -2.01563500      -0.49270734      -2.92810774       0.00000000
Si      -0.20536803      -2.23694280      -2.81114588       0.00000000
Si       2.72072322       2.69778690      -0.02646905       0.00000000
Si      -0.00117288       2.69786835       2.72977818       0.00000000
Si       2.70492192      -2.72710890      -0.01057520       0.00000000
Si      -2.73747653       2.70104490      -0.00878163       0.00000000
