10
Lattice="16.28999089631971 0.0 0.0 0.0 16.28999089631971 0.0 0.0 0.0 34.49183129400761" Properties=species:S:1:pos:R:3:initial_magmoms:R:1 pbc="T T T"
Si      -1.35568509      -1.35708406       1.35673694       0.00000000
Si       1.35777346      -1.35708895      -1.35773721       0.00000000
Si       1.35799175       1.35839052       1.35670245       0.00000000
Si      -1.35793311       1.35819504      -1.35794416       0.00000000
Si      -0.00001500      -2.71450763       2.71178378       0.00000000
Si       0.00102042      -2.71380089      -2.71464661       0.00000000
Si       2.71441118      -2.71440590       0.00006898       0.00000000
Si       2.71372700       0.00296478       2.71588831       0.00000000
Si      -2.71498785      -2.71473412      -0.00027593       0.00000000
Si      -2.71531365       2.71502172      -0.00024144       0.00000000
