10
Lattice="16.28999089631971 0.0 0.0 0.0 16.28999089631971 0.0 0.0 0.0 34.49183129400761" Properties=species:S:1:pos:R:3:initial_magmoms:R:1 pbc="T T T"
Si      -1.10622132      -1.52891424       1.32835015       0.00000000
Si      -1.50909908       1.22028390      -1.33279960       0.00000000
Si       1.22388399      -1.50460956      -1.33673167       0.00000000
Si       1.14306930       1.50592905       1.47938996       0.00000000
Si       2.57494401      -0.14224428      -2.70209157       0.00000000
Si      -0.14683806       2.57844636      -2.70091885       0.00000000
Si       0.64084860      -1.78264728       3.35891988       0.00000000
Si       2.72934063       2.72564280       0.16901007       0.00000000
Si      -1.53268538      -0.83655666       3.46739675       0.00000000
Si      -2.93080625       2.54511702       0.12737840       0.00000000
