10
Lattice="16.28999089631971 0.0 0.0 0.0 16.28999089631971 0.0 0.0 0.0 34.49183129400761" Properties=species:S:1:pos:R:3:initial_magmoms:R:1 pbc="T T T"
Si       1.09056663       2.00345823      -0.36237138       0.00000000
Si       0.16746120      -1.28000304      -1.92499018       0.00000000
Si      -2.33429689       0.34692813       0.14841843       0.00000000
Si       0.51153858      -0.25358643       2.29960617       0.00000000
Si      -0.09182673      -3.30612066      -0.67207371       0.00000000
Si      -2.19295328       2.41629570       1.39929989       0.00000000
Si      -1.38477055       0.00781920      -3.27375950       0.00000000
Si      -0.69095664       3.53374083      -0.04921987       0.00000000
Si      -0.92664362       1.46307006       3.21933136       0.00000000
Si      -3.07407680      -1.72413360       1.00240216       0.00000000
