10
Lattice="16.28999089631971 0.0 0.0 0.0 16.28999089631971 0.0 0.0 0.0 34.49183129400761" Properties=species:S:1:pos:R:3:initial_magmoms:R:1 pbc="T T T"
Si      -1.26630967       0.95322564      -1.82003148       0.00000000
Si       1.43818220      -1.71665649      -0.91972520       0.00000000
Si       1.37587295       1.47957183       1.40130041       0.00000000
Si      -1.47575101      -1.39792635       1.58507299       0.00000000
Si      -1.40765327      -1.11614193      -3.07091293       0.00000000
Si       0.92664362      -1.46307006      -3.21933136       0.00000000
Si      -1.47995043      -3.43976382       0.10620041       0.00000000
Si       1.23287933       3.56589729       0.22664595       0.00000000
Si       0.86099492      -3.73062177       0.10837339       0.00000000
Si       3.59062877       0.30911904       1.40861269       0.00000000
