10
Lattice="16.28999089631971 0.0 0.0 0.0 16.28999089631971 0.0 0.0 0.0 34.49183129400761" Properties=species:S:1:pos:R:3:initial_magmoms:R:1 pbc="T T T"
Si       0.72311554      -0.32863446       2.28884471       0.00000000
Si      -2.34402986       0.62693694       0.50727165       0.00000000
Si      -0.00419942      -2.04183747      -1.47887259       0.00000000
Si       1.47575101       1.39792635      -1.58507299       0.00000000
Si       2.33674593      -2.33269542      -1.47669960       0.00000000
Si       2.91393321      -0.31873014      -2.50479819       0.00000000
Si      -1.18743986      -1.27143450       3.59879833       0.00000000
Si       2.85162396       2.87749818      -0.18377258       0.00000000
Si       2.53338252      -2.07286992       2.40580658       0.00000000
Si       0.20944134       2.35115199      -3.40510447       0.00000000
