10
Lattice="16.28999089631971 0.0 0.0 0.0 16.28999089631971 0.0 0.0 0.0 34.49183129400761" Properties=species:S:1:pos:R:3:initial_magmoms:R:1 pbc="T T T"
Si      -1.35763490       1.35677781      -1.35763373       0.00000000
Si      -1.35792812      -1.35677781       1.35749576       0.00000000
Si       1.35721482       1.35967743       1.35618507       0.00000000
Si       1.35752921      -1.35817875      -1.35756475       0.00000000
Si       0.00003886       2.71490769       2.71188726       0.00000000
Si      -0.00325172      -2.71280628       2.71512949       0.00000000
Si      -2.71477109      -0.00011403      -2.71361185       0.00000000
Si       2.71536099      -0.00070047      -2.71395677       0.00000000
Si       2.71446504       2.71500942       0.00017246       0.00000000
Si      -2.71493399       2.71468120      -0.00017246       0.00000000
