10
Lattice="16.28999089631971 0.0 0.0 0.0 16.28999089631971 0.0 0.0 0.0 34.49183129400761" Properties=species:S:1:pos:R:3:initial_magmoms:R:1 pbc="T T T"
Si       1.50909908      -1.22028390       1.33279960       0.00000000
Si      -1.35237692      -1.35576783      -1.37139598       0.00000000
Si       1.36226102       1.35816246      -1.36811925       0.00000000
Si      -1.42170716       1.32483312       1.46017800       0.00000000
Si      -2.70363242      -2.71081890       0.00782965       0.00000000
Si      -2.70135182       2.71570590      -0.00348368       0.00000000
Si      -2.70705332       0.00026064      -2.72902971       0.00000000
Si       0.40287776      -2.74919814       2.66114975       0.00000000
Si       0.00795767      -2.71643895      -2.72885725       0.00000000
Si       0.00808961       2.71671588      -2.73034040       0.00000000
