10
Lattice="16.28999089631971 0.0 0.0 0.0 16.28999089631971 0.0 0.0 0.0 34.49183129400761" Properties=species:S:1:pos:R:3:initial_magmoms:R:1 pbc="T T T"
Si       1.58627133       1.21971375      -1.31037989       0.00000000
Si      -1.14306930      -1.50592905      -1.47938996       0.00000000
Si       0.95495238      -1.29523419       1.86635403       0.00000000
Si      -1.53793890       1.38570885       1.41485571       0.00000000
Si       0.08928549       2.43178749      -2.80722273       0.00000000
Si      -2.24929062      -3.03484329      -0.15103981       0.00000000
Si      -0.50222070      -3.28857633       1.87952992       0.00000000
Si      -2.65216838      -0.28564515      -2.81218956       0.00000000
Si      -2.85598398       2.62454706      -0.05194473       0.00000000
Si      -2.67886606      -0.16236243       2.85709795       0.00000000
