10
Lattice="16.28999089631971 0.0 0.0 0.0 16.28999089631971 0.0 0.0 0.0 34.49183129400761" Properties=species:S:1:pos:R:3:initial_magmoms:R:1 pbc="T T T"
Si       2.00562480      -0.77167359       0.84912038       0.00000000
Si       1.41366249       1.72766757      -0.78196474       0.00000000
Si      -1.40945967       0.94604568       1.69072153       0.00000000
Si      -0.71070012      -1.93893354      -1.23425638       0.00000000
Si      -2.02874520      -0.70009533      -2.70105682       0.00000000
Si       1.73387502       0.12111615       3.02076178       0.00000000
Si      -3.19700114       0.95440734      -1.25746940       0.00000000
Si      -0.53528940      -0.02256165       3.63371646       0.00000000
Si      -3.50608760       0.06213006       1.09559914       0.00000000
Si       0.34787295       2.31888869      -2.83067719       0.00000000
