10
Lattice="16.28999089631971 0.0 0.0 0.0 16.28999089631971 0.0 0.0 0.0 34.279985188174585" Properties=species:S:1:pos:R:3:initial_magmoms:R:1 pbc="T T T"
Si       2.14757586       0.41213604      -0.81826370       0.00000000
Si      -1.99960076       0.32423781      -1.21296367       0.00000000
Si       0.39496734      -2.33768016      -0.33806940       0.00000000
Si      -0.20155617       0.61892619       2.33847906       0.00000000
Si      -0.89565678      -1.51925427       3.02771282       0.00000000
Si       3.53447388      -0.71674371       0.86563867       0.00000000
Si      -0.10788867      -3.29936031       1.74474938       0.00000000
Si       2.62365111       2.70927854      -0.56609999       0.00000000
Si      -2.59616092      -1.81322361      -2.14184895       0.00000000
Si      -0.55803024      -3.00431583      -2.35884138       0.00000000
