10
Lattice="16.28999089631971 0.0 0.0 0.0 16.28999089631971 0.0 0.0 0.0 34.279985188174585" Properties=species:S:1:pos:R:3:initial_magmoms:R:1 pbc="T T T"
Si      -1.34850249      -1.36354989      -1.36359001       0.00000000
Si       1.37158542       1.34586677      -1.36406993       0.00000000
Si       1.25284761      -1.50117630       1.34185649       0.00000000
Si      -1.31585733       1.39501370       1.45830566       0.00000000
Si      -2.37646665      -0.29375268       2.70620066       0.00000000
Si      -2.70293454       2.70034769       0.00976980       0.00000000
Si      -2.68596036      -2.73744069      -0.00548480       0.00000000
Si      -2.70412371      -0.00990432      -2.72334067       0.00000000
Si       0.01101204       2.70507179      -2.72258651       0.00000000
Si       2.72564280       2.70243281       0.01066108       0.00000000
