10
Lattice="16.28999089631971 0.0 0.0 0.0 16.28999089631971 0.0 0.0 0.0 34.279985188174585" Properties=species:S:1:pos:R:3:initial_magmoms:R:1 pbc="T T T"
Si       0.19347633       2.11335057      -0.86063379       0.00000000
Si      -2.18362563      -0.21874212       0.73887121       0.00000000
Si       1.96621929      -0.79962560       0.96858152       0.00000000
Si      -0.49596534      -1.41929394      -1.86400952       0.00000000
Si       1.72445940      -1.22178258      -2.83313952       0.00000000
Si      -0.31947948      -3.48383546      -0.61782852       0.00000000
Si       1.43615898      -3.09038309       1.05462433       0.00000000
Si      -1.76086755       3.11847615      -0.09091057       0.00000000
Si      -0.91038294       1.88670780      -2.95212541       0.00000000
Si       1.93248270       3.07165869       0.49184950       0.00000000
