10
Lattice="16.28999089631971 0.0 0.0 0.0 16.28999089631971 0.0 0.0 0.0 34.279985188174585" Properties=species:S:1:pos:R:3:initial_magmoms:R:1 pbc="T T T"
Si       0.38582865      -2.28759560       0.32120364       0.00000000
Si       1.95294294       0.33106167      -1.30558825       0.00000000
Si       0.64508400       0.93726144       2.09971883       0.00000000
Si      -2.42116641       0.33866910      -0.05872165       0.00000000
Si       1.50247557       2.56655466      -1.71715398       0.00000000
Si      -2.89724166      -1.95847339      -0.31088536       0.00000000
Si       2.47937058      -2.26623941       1.35028937       0.00000000
Si       3.62633319      -0.44106804       0.27204611       0.00000000
Si      -1.10970738       2.43748899       2.53809152       0.00000000
Si      -1.51034364      -3.08735315       1.37301701       0.00000000
