10
Lattice="16.28999089631971 0.0 0.0 0.0 16.28999089631971 0.0 0.0 0.0 34.279985188174585" Properties=species:S:1:pos:R:3:initial_magmoms:R:1 pbc="T T T"
Si       2.19924774      -0.55457676      -0.50665846       0.00000000
Si       0.09948303       1.91990682      -1.32982421       0.00000000
Si       0.12891906       1.23468426       1.99279949       0.00000000
Si      -1.84282254      -1.78149232      -0.01868260       0.00000000
Si      -3.01167891      -0.01487277       1.12623526       0.00000000
Si       1.74105891      -1.90243417      -2.36329778       0.00000000
Si      -2.10180096      -1.73946086      -2.42836123       0.00000000
Si       2.08743318       3.03585327      -0.74867529       0.00000000
Si       3.19384998      -1.50508197       1.34854109       0.00000000
Si       0.20362500       1.25485128      -3.58212333       0.00000000
