10
Lattice="16.28999089631971 0.0 0.0 0.0 16.28999089631971 0.0 0.0 0.0 34.279985188174585" Properties=species:S:1:pos:R:3:initial_magmoms:R:1 pbc="T T T"
Si      -0.98828172      -1.62937208       1.43333066       0.00000000
Si       1.62496008       1.01175398       1.47013025       0.00000000
Si      -1.87147665       1.65683309       0.07990669       0.00000000
Si       1.98301428      -1.82545481      -1.83110071       0.00000000
Si      -1.85310153      -0.90008507      -2.88024025       0.00000000
Si      -2.37192174      -0.32482301       2.84976330       0.00000000
Si       0.32470857       2.41001753       2.83571193       0.00000000
Si      -2.97321822       1.08467291      -2.02786794       0.00000000
Si       2.48596803       2.86522529       0.28460566       0.00000000
Si      -2.35923183      -3.15504461       0.01528888       0.00000000
