10
Lattice="16.28999089631971 0.0 0.0 0.0 16.28999089631971 0.0 0.0 0.0 34.279985188174585" Properties=species:S:1:pos:R:3:initial_magmoms:R:1 pbc="T T T"
Si       1.90689111       0.16777071      -1.41072502       0.00000000
Si      -1.11092913       2.28776760      -0.10218869       0.00000000
Si       1.20744738       0.40531149       2.35856714       0.00000000
Si      -1.23370686      -1.08178632      -2.27728925       0.00000000
Si       0.82227033       2.34305586      -1.56498504       0.00000000
Si      -1.36989126      -2.41652376       2.35575618       0.00000000
Si      -0.60680250      -0.43849422       3.65720138       0.00000000
Si      -2.47163283      -2.98868395       0.24798155       0.00000000
Si      -2.83621932       2.16784062      -1.74543498       0.00000000
Si       1.77797205      -1.06691355      -3.40352451       0.00000000
