10
Lattice="16.28999089631971 0.0 0.0 0.0 16.28999089631971 0.0 0.0 0.0 34.279985188174585" Properties=species:S:1:pos:R:3:initial_magmoms:R:1 pbc="T T T"
Si       1.34882829       1.36958175      -1.35288780       0.00000000
Si      -1.35723393       1.35703845       1.36036769       0.00000000
Si       1.36032903      -1.35741312       1.36108757       0.00000000
Si      -1.35189081      -1.37518551      -1.38414773       0.00000000
Si       2.67256998      -0.07081263      -2.63403097       0.00000000
Si      -2.71085148      -2.71562445      -0.00209108       0.00000000
Si      -2.71503801       2.71360449       0.00030852       0.00000000
Si      -2.71428867       0.00009774       2.71782158       0.00000000
Si       0.00079821      -2.71476108       2.71802726       0.00000000
Si       0.00125433       2.71477737       2.71806154       0.00000000
