10
Lattice="16.28999089631971 0.0 0.0 0.0 16.28999089631971 0.0 0.0 0.0 34.279985188174585" Properties=species:S:1:pos:R:3:initial_magmoms:R:1 pbc="T T T"
Si       0.40397897       0.97395369      -2.09049751       0.00000000
Si       1.99960076      -0.32423781       1.21296367       0.00000000
Si      -1.58635671       1.32823024       1.19719487       0.00000000
Si      -0.59656016      -2.13746142      -0.92888528       0.00000000
Si       2.39456810      -2.66191797       0.87489427       0.00000000
Si      -3.62812902       0.76100266      -0.04202729       0.00000000
Si      -1.63304385       0.63081461      -3.27857390       0.00000000
Si       2.12148254      -0.28030368      -3.07899571       0.00000000
Si       1.44157052      -3.32855364      -1.14587771       0.00000000
Si      -2.14629288      -3.24529545       0.44872526       0.00000000
