10
Lattice="16.28999089631971 0.0 0.0 0.0 16.28999089631971 0.0 0.0 0.0 34.279985188174585" Properties=species:S:1:pos:R:3:initial_magmoms:R:1 pbc="T T T"
Si       1.35521397      -1.35527913       1.35909933       0.00000000
Si      -1.35731538      -1.35751086      -1.35697397       0.00000000
Si       1.35764118       1.35770634      -1.35704253       0.00000000
Si      -1.35382932       1.36109466       1.35752245       0.00000000
Si      -0.00242721      -2.70177795       2.72070110       0.00000000
Si       2.71422351       2.71446786       0.00085700       0.00000000
Si       0.00013032      -2.71461447      -2.71415362       0.00000000
Si       0.00058644       2.71492398      -2.71411934       0.00000000
Si       2.71510317       0.00014661      -2.71418790       0.00000000
Si      -2.71495656       0.00024435      -2.71435930       0.00000000
