10
Lattice="16.28999089631971 0.0 0.0 0.0 16.28999089631971 0.0 0.0 0.0 34.279985188174585" Properties=species:S:1:pos:R:3:initial_magmoms:R:1 pbc="T T T"
Si       1.37191122       1.24564743      -1.44884438       0.00000000
Si       1.54401507      -1.30119633       1.39996110       0.00000000
Si      -0.74523492       1.03239504       2.10290687       0.00000000
Si      -1.35540945      -1.52707347      -1.42543114       0.00000000
Si      -2.42958834      -0.67676805       1.90476844       0.00000000
Si      -0.33953247      -1.99321182       2.74006931       0.00000000
Si      -0.01150074       2.53700460      -2.84448620       0.00000000
Si       2.34176895       3.00713400      -0.12844718       0.00000000
Si       2.71564074      -0.17448219      -2.83735596       0.00000000
Si      -2.71124244      -0.18243171      -2.84318356       0.00000000
