10
Lattice="16.28999089631971 0.0 0.0 0.0 16.28999089631971 0.0 0.0 0.0 34.279985188174585" Properties=species:S:1:pos:R:3:initial_magmoms:R:1 pbc="T T T"
Si       1.83124035       1.19486010       0.84599623       0.00000000
Si      -0.69410061      -2.13818046       0.68923377       0.00000000
Si      -1.74911920       1.16766394       1.15640167       0.00000000
Si       0.20155617      -0.61892619      -2.33847906       0.00000000
Si      -3.63617954       0.31789121      -0.04189017       0.00000000
Si      -3.05314415      -2.02937955       0.42483209       0.00000000
Si       3.67373709      -0.19217476       0.58149171       0.00000000
Si       2.17201086       2.98967438      -0.72982129       0.00000000
Si       0.18992511      -2.61176334       2.79933943       0.00000000
Si       0.38763684      -0.53710152       3.81210788       0.00000000
