10
Lattice="16.28999089631971 0.0 0.0 0.0 16.28999089631971 0.0 0.0 0.0 34.279985188174585" Properties=species:S:1:pos:R:3:initial_magmoms:R:1 pbc="T T T"
Si       2.12506308      -0.57435282      -0.76862626       0.00000000
Si      -1.28357055      -0.90020169      -1.74138994       0.00000000
Si      -1.15992945      -1.07779527       1.74166418       0.00000000
Si       0.05623308       2.35273212       0.17417670       0.00000000
Si      -3.14677188       0.44308800      -1.26853156       0.00000000
Si      -3.34300122      -0.40053852       0.90643187       0.00000000
Si       2.17118007       0.98420922      -2.54930108       0.00000000
Si      -1.36557441      -3.20388462      -1.00659805       0.00000000
Si       1.21282308       2.67405237       2.14428283       0.00000000
Si      -0.75694743      -3.34024821       1.28128372       0.00000000
