10
Lattice="16.28999089631971 0.0 0.0 0.0 16.28999089631971 0.0 0.0 0.0 34.279985188174585" Properties=species:S:1:pos:R:3:initial_magmoms:R:1 pbc="T T T"
Si       0.24068475       2.29915431      -0.29508228       0.00000000
Si       1.67368347      -0.80778852       1.45923122       0.00000000
Si      -0.49754547      -0.60571107      -2.23533052       0.00000000
Si      -1.88462268      -1.10196963       0.95161292       0.00000000
Si       0.75088755      -2.85866694       2.11932699       0.00000000
Si      -1.14499152      -3.35497437       0.86755835       0.00000000
Si      -1.82360034       2.94707277      -1.21851703       0.00000000
Si       0.37504467       3.28634460       1.81114975       0.00000000
Si      -3.90073335      -0.51575769      -0.12001430       0.00000000
Si      -0.09456345      -2.86816401      -2.69571098       0.00000000
