10
Lattice="16.28999089631971 0.0 0.0 0.0 16.28999089631971 0.0 0.0 0.0 34.279985188174585" Properties=species:S:1:pos:R:3:initial_magmoms:R:1 pbc="T T T"
Si      -2.09375370       0.63304569       0.81497282       0.00000000
Si       0.11222181      -0.56573541      -2.27115313       0.00000000
Si       1.40449122       1.81543905       0.53572791       0.00000000
Si       0.33576948      -2.01362319       1.25663640       0.00000000
Si       3.26801835       0.39136725       0.57165335       0.00000000
Si      -1.65218067      -3.12956964       0.67548749       0.00000000
Si      -3.01654962      -1.41783273       1.47506859       0.00000000
Si      -1.47180150       1.86531903       2.78970675       0.00000000
Si       2.08650465      -1.91404242      -2.38650534       0.00000000
Si       0.73389708      -1.35006633       3.48339692       0.00000000
