10
Lattice="16.28999089631971 0.0 0.0 0.0 16.28999089631971 0.0 0.0 0.0 34.279985188174585" Properties=species:S:1:pos:R:3:initial_magmoms:R:1 pbc="T T T"
Si       1.50335523       1.93075596       0.11144429       0.00000000
Si       0.92913273      -1.75928742       1.45069849       0.00000000
Si      -0.55231245      -1.15704612      -2.12923391       0.00000000
Si      -1.84700907       1.08660816       1.28539732       0.00000000
Si       1.85538213      -0.14379183       2.87289545       0.00000000
Si       3.25568682       1.15119801       1.47800677       0.00000000
Si      -0.95531076       0.65498832      -3.57633001       0.00000000
Si      -0.76260006       2.66706396       2.71793955       0.00000000
Si      -0.83103435      -2.90466990       2.62219550       0.00000000
Si       1.25038782      -2.56039704      -2.88263985       0.00000000
