10
Lattice="16.28999089631971 0.0 0.0 0.0 16.28999089631971 0.0 0.0 0.0 34.279985188174585" Properties=species:S:1:pos:R:3:initial_magmoms:R:1 pbc="T T T"
Si       1.00240515      -1.01520909       1.80974427       0.00000000
Si       1.92955050       0.81234972      -1.15907551       0.00000000
Si      -0.57233286       2.02723350       1.14416371       0.00000000
Si      -0.86729589      -1.82615787      -1.35810521       0.00000000
Si      -2.43644643      -0.55526094       0.02235056       0.00000000
Si      -2.71309950       1.77675030       0.11860882       0.00000000
Si       1.71429444      -3.05732349       0.84753883       0.00000000
Si       2.83788090       0.29952423       2.46394387       0.00000000
Si       0.56760876      -3.60595440      -1.28491740       0.00000000
Si       1.81055205       0.02733462      -3.45864676       0.00000000
