10
Lattice="16.28999089631971 0.0 0.0 0.0 16.28999089631971 0.0 0.0 0.0 34.279985188174585" Properties=species:S:1:pos:R:3:initial_magmoms:R:1 pbc="T T T"
Si      -1.36664955      -1.33957231       1.39445573       0.00000000
Si       1.34917038       1.37287233       1.39459285       0.00000000
Si      -1.31235498       1.40988321      -1.47089328       0.00000000
Si       1.37539728      -1.48703754      -1.53285096       0.00000000
Si       2.70485676      -2.68593918       0.03935344       0.00000000
Si      -2.70638802      -2.70995809       0.01028400       0.00000000
Si       2.70407484       2.73515616       0.01969043       0.00000000
Si       2.40272613       0.12551445      -3.00440383       0.00000000
Si      -2.72259657       2.72673423       0.02260766       0.00000000
Si      -0.00851967      -2.69931757       2.75506338       0.00000000
