10
Lattice="16.28999089631971 0.0 0.0 0.0 16.28999089631971 0.0 0.0 0.0 34.279985188174585" Properties=species:S:1:pos:R:3:initial_magmoms:R:1 pbc="T T T"
Si       1.57783311      -1.31840576       1.13319410       0.00000000
Si       1.25605674       1.55668869      -1.29047076       0.00000000
Si      -1.41706710      -1.23878024      -1.51651311       0.00000000
Si      -2.22042474      -0.19751136       0.96913000       0.00000000
Si       2.24687970       0.58644000       2.38863070       0.00000000
Si      -1.72445940       1.22178258       2.83313952       0.00000000
Si      -2.16293733      -3.04706798      -0.08426025       0.00000000
Si      -2.04393888      -2.26205288       2.21531100       0.00000000
Si       0.06416631      -2.45580614      -2.87358992       0.00000000
Si       2.71850778       2.65887009       0.28137028       0.00000000
