10
Lattice="16.28999089631971 0.0 0.0 0.0 16.28999089631971 0.0 0.0 0.0 34.279985188174585" Properties=species:S:1:pos:R:3:initial_magmoms:R:1 pbc="T T T"
Si       2.12958030       0.74907936      -0.64213304       0.00000000
Si      -1.85952209       1.43817894       0.21640967       0.00000000
Si       0.89165433      -1.15781827       1.88313776       0.00000000
Si      -0.48842633      -1.72790636      -1.57670880       0.00000000
Si      -1.42187495      -1.86867966       2.19799960       0.00000000
Si       1.07128416       2.44149633      -1.95543429       0.00000000
Si       1.59585474      -2.70747035      -1.23061788       0.00000000
Si      -3.14521034      -0.23765481       1.52635147       0.00000000
Si      -2.29979192       1.83787038      -2.11860711       0.00000000
Si      -0.47537152       1.35547461      -3.49450364       0.00000000
