10
Lattice="16.28999089631971 0.0 0.0 0.0 16.28999089631971 0.0 0.0 0.0 34.279985188174585" Properties=species:S:1:pos:R:3:initial_magmoms:R:1 pbc="T T T"
Si       1.35630540       1.35624024       1.35789953       0.00000000
Si      -1.35747828       1.35751086      -1.35731677       0.00000000
Si       1.35739683      -1.35770634      -1.35728249       0.00000000
Si      -1.35817875      -1.35874890       1.35824233       0.00000000
Si      -2.71402803      -0.00171045      -2.71387938       0.00000000
Si       2.71347417       0.00032580      -2.71453070       0.00000000
Si      -0.00192222      -2.71471221      -2.71384510       0.00000000
Si       0.00205254       2.71485882      -2.71425646       0.00000000
Si      -2.71492398       2.71461447      -0.00013712       0.00000000
Si       2.71542897       2.71410948       0.00027424       0.00000000
