10
Lattice="16.28999089631971 0.0 0.0 0.0 16.28999089631971 0.0 0.0 0.0 34.279985188174585" Properties=species:S:1:pos:R:3:initial_magmoms:R:1 pbc="T T T"
Si       1.43938440       0.28929411       1.81200675       0.00000000
Si      -2.10999483       0.04649166       1.00155889       0.00000000
Si       0.09918981      -2.29040658      -0.52215303       0.00000000
Si      -1.22546412       0.69219468      -2.46061871       0.00000000
Si      -3.10901166       0.00017919      -1.12051050       0.00000000
Si      -0.16746120       3.42893097      -0.19978387       0.00000000
Si      -0.37001106      -2.98827018       1.71328034       0.00000000
Si       1.77883542      -1.95481629      -2.38318018       0.00000000
Si       1.11549033      -1.71729180       2.94434385       0.00000000
Si      -2.41414542       2.01585492       2.15545811       0.00000000
