10
Lattice="16.28999089631971 0.0 0.0 0.0 16.28999089631971 0.0 0.0 0.0 34.279985188174585" Properties=species:S:1:pos:R:3:initial_magmoms:R:1 pbc="T T T"
Si      -0.05771547       2.13806250      -0.96806732       0.00000000
Si      -0.29036925       0.27031626       2.32343013       0.00000000
Si       1.89824112      -1.20246264      -0.73400345       0.00000000
Si      -1.93746744      -1.24274781      -0.59674632       0.00000000
Si       0.40542552       1.65752379      -3.18255560       0.00000000
Si      -3.69225882       0.25747974      -0.15837362       0.00000000
Si      -1.69663608      -1.55194830       2.91709125       0.00000000
Si       1.04378175      -2.62107729      -2.42441903       0.00000000
Si      -2.15482491      -2.89980571       1.06045193       0.00000000
Si       1.72626759       3.39508035      -0.03489704       0.00000000
