10
Lattice="16.28999089631971 0.0 0.0 0.0 16.28999089631971 0.0 0.0 0.0 34.279985188174585" Properties=species:S:1:pos:R:3:initial_magmoms:R:1 pbc="T T T"
Si       1.41270138      -1.28252799       1.29264754       0.00000000
Si      -1.32374169       1.44039438       1.28114317       0.00000000
Si      -0.92624940      -1.61549559      -1.42219696       0.00000000
Si       1.40030469       1.29498984      -1.39488869       0.00000000
Si      -1.85538213       0.14379183      -2.87289545       0.00000000
Si      -0.35202690       2.07454779      -2.76145116       0.00000000
Si       0.04367349      -2.64688065       2.63711617       0.00000000
Si      -2.67256998       0.07081263       2.63403097       0.00000000
Si       2.75986809      -2.57818572      -0.14412685       0.00000000
Si       2.75828796       0.06820623       2.63680765       0.00000000
