10
Lattice="16.28999089631971 0.0 0.0 0.0 16.28999089631971 0.0 0.0 0.0 34.279985188174585" Properties=species:S:1:pos:R:3:initial_magmoms:R:1 pbc="T T T"
Si       1.35527913      -1.35817875       1.35803665       0.00000000
Si       1.34141634       1.35736425      -1.37391858       0.00000000
Si      -1.36961433      -1.34659656      -1.35676144       0.00000000
Si      -1.36078515       1.35509994       1.35735105       0.00000000
Si       2.67996564      -0.04675230      -2.72206888       0.00000000
Si       2.71065600       2.71476108      -0.00089128       0.00000000
Si       2.71218726      -0.00107514       2.71449642       0.00000000
Si      -0.04587264      -2.78699094      -2.63790461       0.00000000
Si      -0.00272043       2.71339272       2.71411934       0.00000000
Si      -2.71686249       2.71104696      -0.00335944       0.00000000
