10
Lattice="16.28999089631971 0.0 0.0 0.0 16.28999089631971 0.0 0.0 0.0 34.279985188174585" Properties=species:S:1:pos:R:3:initial_magmoms:R:1 pbc="T T T"
Si       1.35544203       1.35741312       1.35690541       0.00000000
Si      -1.35953082      -1.35734796       1.35693969       0.00000000
Si       1.35591444      -1.36028016      -1.35800237       0.00000000
Si      -1.36032903       1.35741312      -1.36108757       0.00000000
Si       2.71142163      -2.71453302      -0.00027424       0.00000000
Si       2.72494233       0.00407250      -2.70247100       0.00000000
Si       2.71337643      -0.00074934       2.71453070       0.00000000
Si       2.71339272       2.71541268       0.00082272       0.00000000
Si      -0.00201996       2.71497285       2.71405078       0.00000000
Si      -0.00205254      -2.71485882       2.71425646       0.00000000
