10
Lattice="16.28999089631971 0.0 0.0 0.0 16.28999089631971 0.0 0.0 0.0 34.279985188174585" Properties=species:S:1:pos:R:3:initial_magmoms:R:1 pbc="T T T"
Si       2.20884255      -0.00491958      -0.74596717       0.00000000
Si      -1.44972855      -0.06004494      -1.84683523       0.00000000
Si      -0.22569795       2.21664546       0.75107490       0.00000000
Si      -0.35751663      -1.96434594       1.27189100       0.00000000
Si       2.10069324       1.68953364      -2.31400313       0.00000000
Si       1.08781362       3.30501294      -0.92957088       0.00000000
Si       2.40380127      -1.78660575      -2.19028660       0.00000000
Si      -3.57479163       0.51430788      -1.07820898       0.00000000
Si       0.87368157       2.42492940       2.78453047       0.00000000
Si      -1.14557796      -2.02940820      -3.00073446       0.00000000
