10
Lattice="16.28999089631971 0.0 0.0 0.0 16.28999089631971 0.0 0.0 0.0 34.279985188174585" Properties=species:S:1:pos:R:3:initial_magmoms:R:1 pbc="T T T"
Si      -1.35602847       1.35639463       1.35683685       0.00000000
Si       1.36005210      -1.35840681       1.35735105       0.00000000
Si       1.35734796       1.36977301      -1.35887308       0.00000000
Si      -1.36923966      -1.35739683      -1.37302730       0.00000000
Si       2.62905939      -0.04922838      -2.69458317       0.00000000
Si      -2.71065600      -2.71476108       0.00089128       0.00000000
Si      -2.71337643      -0.00136836       2.71501062       0.00000000
Si       0.00179190       2.71391141       2.71470210       0.00000000
Si       2.71689507       2.71290143      -0.00257100       0.00000000
Si      -2.71415835       2.71613988      -0.00377080       0.00000000
