10
Lattice="16.28999089631971 0.0 0.0 0.0 16.28999089631971 0.0 0.0 0.0 34.279985188174585" Properties=species:S:1:pos:R:3:initial_magmoms:R:1 pbc="T T T"
Si       1.82330712      -0.97816563      -0.96762168       0.00000000
Si      -0.84730806      -0.90627786       1.95056653       0.00000000
Si       0.53006031       2.29075749      -0.08604281       0.00000000
Si      -1.75563846      -0.39345237      -1.67245285       0.00000000
Si       1.86613353       0.55019475      -2.75456975       0.00000000
Si      -1.43615898       3.09038309      -1.05462433       0.00000000
Si      -2.68278381      -2.22101118       1.29636692       0.00000000
Si       1.04150115      -3.03539715      -1.89266760       0.00000000
Si       2.53518012       2.45504051      -1.49913315       0.00000000
Si       0.47759022       3.22868519       2.08422426       0.00000000
