10
Lattice="16.28999089631971 0.0 0.0 0.0 16.28999089631971 0.0 0.0 0.0 34.279985188174585" Properties=species:S:1:pos:R:3:initial_magmoms:R:1 pbc="T T T"
Si      -1.31813793      -1.22152194       1.48385939       0.00000000
Si       1.41433038       1.42511436       1.34150139       0.00000000
Si      -1.08408321       1.30969971      -1.74653194       0.00000000
Si       0.94781736      -1.95782994      -1.12263586       0.00000000
Si       0.80791884       1.13557590      -3.25495497       0.00000000
Si      -2.40254694      -2.80197774       0.05131717       0.00000000
Si       2.70014895      -2.73738789       0.24392661       0.00000000
Si      -0.02389743      -2.59198335       2.91995847       0.00000000
Si       2.68713324       0.11197746       2.90280133       0.00000000
Si       3.31853364       2.17464984      -0.09769801       0.00000000
