10
Lattice="16.28999089631971 0.0 0.0 0.0 16.28999089631971 0.0 0.0 0.0 34.279985188174585" Properties=species:S:1:pos:R:3:initial_magmoms:R:1 pbc="T T T"
Si       1.35809730      -1.35754344       1.36197885       0.00000000
Si      -1.35900954       1.35852084       1.36146465       0.00000000
Si       1.35490446       1.36228383      -1.37490241       0.00000000
Si      -1.34917038      -1.37287233      -1.39459285       0.00000000
Si      -2.71451673       2.71277370       0.00373652       0.00000000
Si      -2.71581993      -2.71244464      -0.00013712       0.00000000
Si       2.71523349      -2.71568309       0.00106268       0.00000000
Si       2.71588509       2.71562445      -0.00181684       0.00000000
Si       0.00013032      -2.71467311       2.71833578       0.00000000
Si       2.71507059       0.00052128       2.71840434       0.00000000
