10
Lattice="16.28999089631971 0.0 0.0 0.0 16.28999089631971 0.0 0.0 0.0 34.279985188174585" Properties=species:S:1:pos:R:3:initial_magmoms:R:1 pbc="T T T"
Si      -1.35796698      -1.35712967       1.35635693       0.00000000
Si       1.35697329       1.35806472       1.35642549       0.00000000
Si       1.35713619      -1.35813965      -1.36091617       0.00000000
Si      -1.35809730       1.35754344      -1.36197885       0.00000000
Si      -0.00241092      -2.70126807      -2.71721826       0.00000000
Si      -0.00055386      -2.71448707       2.71435930       0.00000000
Si       2.71425532       0.00037467       2.71459926       0.00000000
Si      -2.71531494       0.00092853       2.71422218       0.00000000
Si      -0.00118917       2.71542897       2.71432502       0.00000000
Si       2.71478201      -2.71519085       0.00000000       0.00000000
