10
Lattice="16.28999089631971 0.0 0.0 0.0 16.28999089631971 0.0 0.0 0.0 34.279985188174585" Properties=species:S:1:pos:R:3:initial_magmoms:R:1 pbc="T T T"
Si      -2.11001112       0.84274686       0.73482617       0.00000000
Si       1.23239456       1.21239954       1.73758486       0.00000000
Si       0.73214006       0.83171853      -2.22645200       0.00000000
Si      -0.59761494      -2.42189620      -0.05090581       0.00000000
Si      -3.03642342       1.50568470      -1.38312962       0.00000000
Si       0.18272493       3.42190998       1.59655692       0.00000000
Si      -0.84939318      -3.13754685       2.26145189       0.00000000
Si       1.10319694       0.07040538       3.85156417       0.00000000
Si      -1.92500559       2.67291207       2.39294998       0.00000000
Si       0.98874177      -3.75012644      -1.24810068       0.00000000
