10
Lattice="16.28999089631971 0.0 0.0 0.0 16.28999089631971 0.0 0.0 0.0 34.279985188174585" Properties=species:S:1:pos:R:3:initial_magmoms:R:1 pbc="T T T"
Si      -0.82899810      -0.95429426      -2.07976786       0.00000000
Si       1.72333539      -1.63102485       0.67164813       0.00000000
Si       1.28568825       1.67583375      -1.30994181       0.00000000
Si      -1.10122029       0.51061005       2.17328372       0.00000000
Si       3.14521034       0.23765481      -1.52635147       0.00000000
Si       0.74661957      -2.72278295      -2.43247483       0.00000000
Si      -3.09791817       1.70417835       1.38696898       0.00000000
Si      -0.97288767       0.63372987      -3.80292084       0.00000000
Si       1.69932393       3.63379401      -0.09337873       0.00000000
Si       1.34856765      -3.77883107      -0.29275124       0.00000000
