10
Lattice="16.28999089631971 0.0 0.0 0.0 16.28999089631971 0.0 0.0 0.0 34.279985188174585" Properties=species:S:1:pos:R:3:initial_magmoms:R:1 pbc="T T T"
Si      -1.34558658      -1.35073422      -1.34416011       0.00000000
Si       1.35637056      -1.35407367       1.35800237       0.00000000
Si      -1.35713619       1.36060596       1.35913361       0.00000000
Si       1.37396376       1.34519562      -1.38609484       0.00000000
Si      -0.03244968       2.67203241      -2.72097192       0.00000000
Si      -2.75828796      -0.06820623      -2.63680765       0.00000000
Si      -0.00014661      -2.71248048       2.71501062       0.00000000
Si       2.71578735      -2.71223613      -0.00524484       0.00000000
Si       0.00158013      -2.64639195      -2.78093450       0.00000000
Si      -2.71461447      -2.71508688       0.00030852       0.00000000
