10
Lattice="16.28999089631971 0.0 0.0 0.0 16.28999089631971 0.0 0.0 0.0 34.279985188174585" Properties=species:S:1:pos:R:3:initial_magmoms:R:1 pbc="T T T"
Si      -1.40872662       1.31486364       1.33500049       0.00000000
Si       1.14552460       1.43485578      -1.52079811       0.00000000
Si       1.14890863       0.01410714       2.15151591       0.00000000
Si      -1.43410644      -1.37551131      -1.44466222       0.00000000
Si      -2.73637791      -0.65563992       1.85650220       0.00000000
Si       3.00961727       1.27791792       1.20477075       0.00000000
Si      -2.65629627       2.66481594      -0.27893640       0.00000000
Si       2.21443069       3.12466635      -0.14174782       0.00000000
Si       2.48923159       0.02775816      -2.97104798       0.00000000
Si      -2.91949380      -2.55407652       0.06931417       0.00000000
