10
Lattice="16.28999089631971 0.0 0.0 0.0 16.28999089631971 0.0 0.0 0.0 34.279985188174585" Properties=species:S:1:pos:R:3:initial_magmoms:R:1 pbc="T T T"
Si      -1.72190187       0.58388247      -1.45083262       0.00000000
Si       1.75501944      -0.38056698      -1.49145443       0.00000000
Si      -0.07609059      -2.04957522       1.14409515       0.00000000
Si       0.37488177       2.01502413       1.21892839       0.00000000
Si      -1.56162456       2.93610960      -1.40709134       0.00000000
Si      -1.75298319      -1.58659713       2.77054423       0.00000000
Si       1.92461449       3.12285816      -0.15868214       0.00000000
Si      -3.71563497       0.33695865      -0.26635563       0.00000000
Si       1.81970703      -2.69521308      -1.89122784       0.00000000
Si      -1.14715809      -3.57842430      -0.24955843       0.00000000
