10
Lattice="16.28999089631971 0.0 0.0 0.0 16.28999089631971 0.0 0.0 0.0 34.279985188174585" Properties=species:S:1:pos:R:3:initial_magmoms:R:1 pbc="T T T"
Si       0.93062489       2.15583489      -0.09629253       0.00000000
Si       1.59673440      -1.44239805      -1.07176434       0.00000000
Si      -1.52186297       0.51512238      -1.80929863       0.00000000
Si      -0.73214006      -0.83171853       2.22645200       0.00000000
Si      -3.51284306      -0.55035765      -1.23504000       0.00000000
Si      -0.17250295       3.44267973       1.64170369       0.00000000
Si       0.66058068      -3.60789128      -1.11214618       0.00000000
Si      -3.76856348       0.67396617       0.84332239       0.00000000
Si       1.06925279       2.47293603      -2.87732644       0.00000000
Si       0.50025450       0.38068101       3.96403686       0.00000000
