10
Lattice="16.28999089631971 0.0 0.0 0.0 16.28999089631971 0.0 0.0 0.0 34.279985188174585" Properties=species:S:1:pos:R:3:initial_magmoms:R:1 pbc="T T T"
Si       2.28263625      -0.28176813       0.20170355       0.00000000
Si      -1.67519844      -1.61137422      -0.16975458       0.00000000
Si       0.12634524       1.00318707      -2.15302423       0.00000000
Si      -0.71591292       0.92488104       2.09543383       0.00000000
Si       2.57318469       1.74265533       1.40589154       0.00000000
Si      -3.53872557      -0.18730242      -0.20568003       0.00000000
Si      -1.07272908      -2.65976604      -2.19474300       0.00000000
Si      -1.44265869       2.67975387      -1.97603657       0.00000000
Si       1.27674504       0.97740000       3.26657589       0.00000000
Si      -0.41013333      -0.83815308      -3.56155533       0.00000000
