10
Lattice="16.28999089631971 0.0 0.0 0.0 16.28999089631971 0.0 0.0 0.0 34.279985188174585" Properties=species:S:1:pos:R:3:initial_magmoms:R:1 pbc="T T T"
Si       1.04638815      -0.67289103      -1.97182013       0.00000000
Si      -0.90072297      -1.99966266       0.84774451       0.00000000
Si      -0.50828058       2.30593095      -0.30934276       0.00000000
Si       1.22293917      -3.09149991       0.88932615       0.00000000
Si      -2.87150346       0.47605896       1.87388216       0.00000000
Si      -1.36640520      -0.95337225       3.09428459       0.00000000
Si       0.49761063       1.04676282      -3.37421511       0.00000000
Si      -2.03010867      -2.62747926      -1.39313938       0.00000000
Si      -2.50093854       2.25341199      -1.48048483       0.00000000
Si       3.40491041      -0.33365178      -1.71379454       0.00000000
