10
Lattice="16.28999089631971 0.0 0.0 0.0 16.28999089631971 0.0 0.0 0.0 34.279985188174585" Properties=species:S:1:pos:R:3:initial_magmoms:R:1 pbc="T T T"
Si      -1.35798327      -1.35715248      -1.35652833       0.00000000
Si       1.35720164       1.35762489      -1.35707681       0.00000000
Si       1.35601488      -1.35506736       1.36211597       0.00000000
Si      -1.36104579       1.35850455       1.36009345       0.00000000
Si       2.71458256      -2.71368594       0.00164544       0.00000000
Si       2.71459071       0.00001629      -2.71401650       0.00000000
Si      -0.00047241       2.71500543      -2.71411934       0.00000000
Si      -2.71559187       0.00024435      -2.71374226       0.00000000
Si      -0.00013032      -2.71505430      -2.71459926       0.00000000
Si       2.71450437       2.71650411      -0.00047992       0.00000000
