10
Lattice="16.28999089631971 0.0 0.0 0.0 16.28999089631971 0.0 0.0 0.0 34.279985188174585" Properties=species:S:1:pos:R:3:initial_magmoms:R:1 pbc="T T T"
Si       1.35244518       1.35887922      -1.36598961       0.00000000
Si      -1.36759437      -1.35136953      -1.36492693       0.00000000
Si      -1.11658176       1.46613211       1.47472579       0.00000000
Si       1.36400608      -1.30702815       1.46416755       0.00000000
Si      -2.43781479      -0.07706799       2.70602926       0.00000000
Si       2.43291217       0.38278242       2.84321784       0.00000000
Si       2.70771307      -2.71412577       0.01391768       0.00000000
Si       2.70795579       0.00663003      -2.72550031       0.00000000
Si      -0.00654858      -2.70987408      -2.72502039       0.00000000
Si      -2.71047681      -2.72587086       0.01809984       0.00000000
