10
Lattice="16.28999089631971 0.0 0.0 0.0 16.28999089631971 0.0 0.0 0.0 34.279985188174585" Properties=species:S:1:pos:R:3:initial_magmoms:R:1 pbc="T T T"
Si       1.40872662      -1.31486364      -1.33500049       0.00000000
Si      -1.32765129      -1.97050356       0.52150171       0.00000000
Si      -1.24756965       1.34995230      -1.61393688       0.00000000
Si       1.24914978       1.11737997       2.11384219       0.00000000
Si       2.55763525      -1.30075650       0.81651542       0.00000000
Si      -0.90440451       0.55223100       2.93214017       0.00000000
Si      -2.76851808       1.04702346       1.45758578       0.00000000
Si      -1.06468182      -1.79999613       2.88839889       0.00000000
Si      -3.55032405      -1.01020806       0.53253987       0.00000000
Si      -2.72569167       2.57538384      -0.32936228       0.00000000
