10
Lattice="16.28999089631971 0.0 0.0 0.0 16.28999089631971 0.0 0.0 0.0 34.279985188174585" Properties=species:S:1:pos:R:3:initial_magmoms:R:1 pbc="T T T"
Si      -1.74043989      -0.51596946       1.47760531       0.00000000
Si      -0.20971746      -0.67621419      -2.25247053       0.00000000
Si       1.72678887      -1.59729966       0.37354921       0.00000000
Si       0.24495273       2.40899845      -0.11720333       0.00000000
Si       3.27652159      -0.48946563      -1.00406133       0.00000000
Si       1.94383683      -0.11106522      -3.07076851       0.00000000
Si      -3.37660749      -1.65988584       0.27269743       0.00000000
Si      -2.89312029       1.42812801       1.98069865       0.00000000
Si      -1.74615768       3.25329938       0.90245539       0.00000000
Si      -0.36999477      -3.02844132      -2.29621181       0.00000000
