10
Lattice="16.28999089631971 0.0 0.0 0.0 16.28999089631971 0.0 0.0 0.0 34.279985188174585" Properties=species:S:1:pos:R:3:initial_magmoms:R:1 pbc="T T T"
Si      -2.25862479       0.04269609      -0.60404796       0.00000000
Si       0.91724103       0.48746196      -2.10359247       0.00000000
Si       0.36357651       1.72677258       1.60817784       0.00000000
Si       0.88150077      -2.04395517       0.88792067       0.00000000
Si      -3.19166712      -0.70076322       1.39718442       0.00000000
Si       0.38390643      -1.53099936      -3.35580675       0.00000000
Si       3.27628457       0.37866105      -1.83919079       0.00000000
Si       2.98702792      -1.49345091       1.77395594       0.00000000
Si       0.33420564       2.83473271      -2.57031473       0.00000000
Si       2.27374095       2.95930397       0.93759240       0.00000000
