10
Lattice="16.28999089631971 0.0 0.0 0.0 16.28999089631971 0.0 0.0 0.0 34.279985188174585" Properties=species:S:1:pos:R:3:initial_magmoms:R:1 pbc="T T T"
Si       0.90921006       1.45779210      -1.59494576       0.00000000
Si       1.05829614      -1.69241697       1.31330125       0.00000000
Si      -1.54665568      -1.08602172      -1.53906936       0.00000000
Si      -0.54421632       1.55720997       1.84515551       0.00000000
Si      -1.07128416      -2.44149633       1.95543429       0.00000000
Si      -3.37107608      -0.60362595      -0.16317282       0.00000000
Si       2.80508913       1.95409953      -0.34317712       0.00000000
Si      -2.93080625      -1.00331739       2.17184396       0.00000000
Si      -0.33519933       3.71249100       0.78528634       0.00000000
Si       0.92747115       0.34195968      -3.73394947       0.00000000
