10
Lattice="16.28999089631971 0.0 0.0 0.0 16.28999089631971 0.0 0.0 0.0 34.279985188174585" Properties=species:S:1:pos:R:3:initial_magmoms:R:1 pbc="T T T"
Si       1.18554710       1.48923180       1.39907466       0.00000000
Si      -0.43125724       0.61649505      -2.25665269       0.00000000
Si      -1.64834830      -1.21303485       1.45642510       0.00000000
Si      -0.84489292      -1.34146521      -3.47321576       0.00000000
Si      -2.55491938       1.70833230      -2.29823433       0.00000000
Si       2.62780017       2.80650636      -0.16924038       0.00000000
Si       2.49151803       0.10414197       3.01309038       0.00000000
Si      -0.22375522      -2.60037270       3.02534206       0.00000000
Si      -3.02060161       2.75462271      -0.05169425       0.00000000
Si      -3.23180146      -2.50668891       0.01000976       0.00000000
