10
Lattice="16.28999089631971 0.0 0.0 0.0 16.28999089631971 0.0 0.0 0.0 34.279985188174585" Properties=species:S:1:pos:R:3:initial_magmoms:R:1 pbc="T T T"
Si      -1.35743267      -1.35605998       1.35680257       0.00000000
Si       1.35679410       1.35657104       1.35800237       0.00000000
Si       1.35782037      -1.35739576      -1.35645977       0.00000000
Si      -1.35762000       1.35779116      -1.35673401       0.00000000
Si       2.71423980       0.00112332      -2.71298810       0.00000000
Si      -0.00104256      -2.71414099      -2.71346802       0.00000000
Si       0.00115659       2.71322178      -2.71442786       0.00000000
Si      -2.71451928      -0.00063328      -2.71350230       0.00000000
Si      -2.71294328      -0.00381079       2.71631326       0.00000000
Si      -2.71473540      -2.71493920       0.00020568       0.00000000
