10
Lattice="16.28999089631971 0.0 0.0 0.0 16.28999089631971 0.0 0.0 0.0 34.279985188174585" Properties=species:S:1:pos:R:3:initial_magmoms:R:1 pbc="T T T"
Si       1.44192564      -1.24644564      -1.39677306       0.00000000
Si      -1.27469413       1.46784303      -1.38364382       0.00000000
Si       1.02236040       1.68774174       1.34261065       0.00000000
Si      -2.51572155      -2.66501142       0.20266339       0.00000000
Si       0.08387721      -2.60077995      -2.76337971       0.00000000
Si       2.79775863      -2.59108740       0.02097936       0.00000000
Si      -2.63294090       0.11702736      -2.76046591       0.00000000
Si      -2.61840112       2.87494065       0.06660605       0.00000000
Si       2.75827167       2.80100034       0.04980885       0.00000000
Si       2.80165194       0.11818395      -2.76499087       0.00000000
