10
Lattice="16.28999089631971 0.0 0.0 0.0 16.28999089631971 0.0 0.0 0.0 34.279985188174585" Properties=species:S:1:pos:R:3:initial_magmoms:R:1 pbc="T T T"
Si      -0.90862525       1.34566803       1.64917673       0.00000000
Si      -1.46379985      -1.76634099      -0.44231490       0.00000000
Si       0.19622934       0.84362652      -2.17496344       0.00000000
Si       2.18307177      -0.67725675       0.83523231       0.00000000
Si      -1.22011611      -0.58730337       2.95054853       0.00000000
Si       2.05943067      -0.49966317      -2.64782182       0.00000000
Si       3.34300122       0.40053852      -0.90643187       0.00000000
Si       0.85701690       2.87552709       1.85204579       0.00000000
Si      -1.84071203      -2.61882927       1.73899034       0.00000000
Si      -0.36067200      -3.05318583      -2.18031112       0.00000000
