10
Lattice="16.28999089631971 0.0 0.0 0.0 16.28999089631971 0.0 0.0 0.0 34.279985188174585" Properties=species:S:1:pos:R:3:initial_magmoms:R:1 pbc="T T T"
Si       0.90862525      -1.34566803      -1.64917673       0.00000000
Si       1.76564215       1.52985906       0.20286907       0.00000000
Si      -0.31149086      -1.93297140       1.30137180       0.00000000
Si      -1.91450410       1.40030469      -0.03078344       0.00000000
Si      -1.70745820      -1.13707458       3.00875598       0.00000000
Si       0.97787404       3.30996510       1.48583251       0.00000000
Si      -2.27236282       1.90816173      -2.30611873       0.00000000
Si       3.09169702      -2.02292478      -0.81394442       0.00000000
Si      -0.55517460      -3.11200902      -2.09149163       0.00000000
Si       1.70461981      -2.51918334       2.37299902       0.00000000
