10
Lattice="16.28999089631971 0.0 0.0 0.0 16.28999089631971 0.0 0.0 0.0 34.279985188174585" Properties=species:S:1:pos:R:3:initial_magmoms:R:1 pbc="T T T"
Si      -0.27665307       2.33201124       0.09625825       0.00000000
Si      -0.95656509      -0.71623872       2.02937626       0.00000000
Si      -1.15818642      -0.30107178      -2.06441042       0.00000000
Si       1.56915054      -1.27089693      -1.38045577       0.00000000
Si       2.43644643       0.55526094      -0.02235056       0.00000000
Si       0.22789710      -3.00172572      -0.34633088       0.00000000
Si       1.86411357       2.58249444       1.12181314       0.00000000
Si      -3.01889505      -1.56488256      -1.11766526       0.00000000
Si      -2.99469577       0.47485350       2.24636868       0.00000000
Si       0.61848243      -1.33133283      -3.51397469       0.00000000
