10
Lattice="16.28999089631971 0.0 0.0 0.0 16.28999089631971 0.0 0.0 0.0 34.281931910070035" Properties=species:S:1:pos:R:3:initial_magmoms:R:1 pbc="T T T"
Si      -1.35710361       1.36032903       1.36047923       0.00000000
Si       1.36070370      -1.35444834       1.36311894       0.00000000
Si      -1.34996859      -1.34962650      -1.38916636       0.00000000
Si       1.36964691       1.36765953      -1.38823390       0.00000000
Si      -2.56852575       0.19582209      -2.80831915       0.00000000
Si      -2.71360449      -2.71076677      -0.00017141       0.00000000
Si       2.71477737      -2.71195920       0.01011318       0.00000000
Si       0.00086337      -2.71101764       2.71924436       0.00000000
Si       2.71274112       2.71764441      -0.00020569       0.00000000
Si      -2.71345788       0.00338832       2.71879869       0.00000000
