10
Lattice="16.28999089631971 0.0 0.0 0.0 16.28999089631971 0.0 0.0 0.0 34.281931910070035" Properties=species:S:1:pos:R:3:initial_magmoms:R:1 pbc="T T T"
Si       1.34996859       1.34962650       1.38916636       0.00000000
Si      -1.36363590      -1.36114027       1.38899496       0.00000000
Si      -1.21855716       1.54544859      -1.41915279       0.00000000
Si       1.43915634      -1.34259574      -1.48556721       0.00000000
Si      -2.70174537       0.21440898      -2.64069378       0.00000000
Si       2.71270854      -2.70768212       0.02513895       0.00000000
Si      -2.71407690       2.71645524       0.02245468       0.00000000
Si       2.71961550       2.71728603       0.00093247       0.00000000
Si      -2.72707632      -2.71468106      -0.00130957       0.00000000
Si      -0.00713502       2.70995553       2.74964559       0.00000000
