10
Lattice="16.28999089631971 0.0 0.0 0.0 16.28999089631971 0.0 0.0 0.0 34.281931910070035" Properties=species:S:1:pos:R:3:initial_magmoms:R:1 pbc="T T T"
Si       0.63568467      -1.07057880      -2.00268302       0.00000000
Si       0.08332335       2.26227375      -0.69366100       0.00000000
Si      -2.31150213      -0.54646434       0.24045360       0.00000000
Si       1.86771366       0.72369954       1.77230831       0.00000000
Si      -1.03928571      -0.01420488      -3.23237660       0.00000000
Si      -3.01032684       0.21409947      -1.91872652       0.00000000
Si      -0.33296760       3.36411306       1.39578964       0.00000000
Si      -2.48945409      -2.83356405       0.72256068       0.00000000
Si      -3.21336540       0.72721818       2.00415714       0.00000000
Si       0.54683901       2.06943273       3.30947671       0.00000000
