10
Lattice="16.28999089631971 0.0 0.0 0.0 16.28999089631971 0.0 0.0 0.0 34.281931910070035" Properties=species:S:1:pos:R:3:initial_magmoms:R:1 pbc="T T T"
Si      -1.03894362       1.01325429      -1.86113284       0.00000000
Si      -0.25215291       1.65561786       1.70086472       0.00000000
Si      -0.94912056      -2.17712592       0.46969701       0.00000000
Si       2.41833195      -0.18350685      -0.26945614       0.00000000
Si       2.88010458      -0.13890483       2.06860721       0.00000000
Si      -0.12336417      -0.41826204      -3.55058167       0.00000000
Si      -0.50929056      -2.42338185       2.81739358       0.00000000
Si       1.86051348       1.93640859       2.66511316       0.00000000
Si      -1.05660198       3.62804364       0.71008205       0.00000000
Si      -0.98593596       3.44831607      -1.63936290       0.00000000
