10
Lattice="16.28999089631971 0.0 0.0 0.0 16.28999089631971 0.0 0.0 0.0 34.281931910070035" Properties=species:S:1:pos:R:3:initial_magmoms:R:1 pbc="T T T"
Si       1.29432195       1.27104354       1.53322053       0.00000000
Si       1.32087465      -1.34573319      -1.53716840       0.00000000
Si      -0.87980661       1.29468033      -1.91368707       0.00000000
Si      -1.43874909      -1.36448298       1.64019051       0.00000000
Si      -3.21277896       1.11420342      -1.46613620       0.00000000
Si       2.52615546      -2.79652059       0.10168027       0.00000000
Si      -0.54683901      -2.06943273      -3.30947671       0.00000000
Si       2.49942357      -0.19264554       3.06027576       0.00000000
Si       2.57197923       3.01138569       0.08231096       0.00000000
Si      -0.22573053       2.50957224       3.05675158       0.00000000
