10
Lattice="16.28999089631971 0.0 0.0 0.0 16.28999089631971 0.0 0.0 0.0 34.281931910070035" Properties=species:S:1:pos:R:3:initial_magmoms:R:1 pbc="T T T"
Si      -1.37456649       1.40763519      -1.25958745       0.00000000
Si       1.33351569       1.36137159       1.37631406       0.00000000
Si      -1.38466629      -1.35128808       1.37007475       0.00000000
Si       1.56046797      -1.24554969      -1.48026379       0.00000000
Si       0.05828562      -2.21390874      -2.99375849       0.00000000
Si       2.68895772       2.71500543       0.00476862       0.00000000
Si       2.70150102      -2.71806795      -0.01182042       0.00000000
Si       2.68926723       0.00612504       2.73237092       0.00000000
Si      -0.02459790      -2.70899442       2.73490778       0.00000000
Si      -2.73942414      -2.71572219      -0.01931788       0.00000000
