10
Lattice="16.28999089631971 0.0 0.0 0.0 16.28999089631971 0.0 0.0 0.0 34.281931910070035" Properties=species:S:1:pos:R:3:initial_magmoms:R:1 pbc="T T T"
Si       1.35633798       1.35650088      -1.35814806       0.00000000
Si      -1.35900954      -1.35829278      -1.35886798       0.00000000
Si       1.35827649      -1.36005210       1.35921080       0.00000000
Si      -1.36228383       1.35954711       1.36380458       0.00000000
Si      -2.71469592      -2.71443528      -0.00349676       0.00000000
Si       2.71379997      -0.00058644      -2.71643324       0.00000000
Si       2.70829395       0.02946861       2.72208976       0.00000000
Si      -0.00156384       2.71480995      -2.71636467       0.00000000
Si       2.71482624      -2.71686249       0.00003428       0.00000000
Si      -2.71551042       2.71637379      -0.00171410       0.00000000
