10
Lattice="16.28999089631971 0.0 0.0 0.0 16.28999089631971 0.0 0.0 0.0 34.281931910070035" Properties=species:S:1:pos:R:3:initial_magmoms:R:1 pbc="T T T"
Si       2.10558024       0.35541522       1.00326130       0.00000000
Si      -2.02590585       1.12094748       0.51152099       0.00000000
Si       0.68321889       0.66306816      -2.17244724       0.00000000
Si      -0.26127531      -2.33188092       0.54062637       0.00000000
Si      -3.40586433       0.10208943      -1.14793113       0.00000000
Si      -2.44579689       0.34948566       2.70086923       0.00000000
Si       3.53313810      -0.78605766      -0.65670505       0.00000000
Si       0.53450748      -3.36743622      -1.39273854       0.00000000
Si       1.85157027      -1.02664467       3.11890334       0.00000000
Si      -0.64242873      -0.36958752      -3.71972882       0.00000000
