10
Lattice="16.28999089631971 0.0 0.0 0.0 16.28999089631971 0.0 0.0 0.0 34.281931910070035" Properties=species:S:1:pos:R:3:initial_magmoms:R:1 pbc="T T T"
Si       0.88324380       1.11718449      -1.88204483       0.00000000
Si       0.21400173      -2.38962897      -0.23013474       0.00000000
Si      -2.24443620       0.01140300       0.89037083       0.00000000
Si       1.64361213       1.11320973       1.51022279       0.00000000
Si      -0.46439532      -2.88251550       1.97714296       0.00000000
Si       3.18257730       0.67403133      -1.45177206       0.00000000
Si       3.52147446       0.01725111       0.77394933       0.00000000
Si      -0.16786845       3.21101964      -1.69736796       0.00000000
Si       0.94164345       0.51660477       3.61047224       0.00000000
Si      -3.75199425       0.12854439      -0.92540699       0.00000000
