10
Lattice="16.28999089631971 0.0 0.0 0.0 16.28999089631971 0.0 0.0 0.0 34.281931910070035" Properties=species:S:1:pos:R:3:initial_magmoms:R:1 pbc="T T T"
Si      -1.36329381      -1.34079732      -1.34850454       0.00000000
Si      -1.35189081       1.35781200       1.35838803       0.00000000
Si       1.36269108      -1.35565380       1.35759954       0.00000000
Si       1.36531377       1.36945143      -1.36731848       0.00000000
Si       0.01192428      -2.66999616      -2.63531871       0.00000000
Si      -2.71013472      -2.71430496      -0.00119987       0.00000000
Si      -2.71091664       0.00017919       2.71540478       0.00000000
Si      -2.71103067       2.71599327      -0.00346248       0.00000000
Si       0.00351864      -2.71422351       2.71557619       0.00000000
Si       0.00343719       2.71574241       2.71595329       0.00000000
