10
Lattice="16.28999089631971 0.0 0.0 0.0 16.28999089631971 0.0 0.0 0.0 34.281931910070035" Properties=species:S:1:pos:R:3:initial_magmoms:R:1 pbc="T T T"
Si       1.35896882      -1.53927468       1.07244228       0.00000000
Si      -1.97060034      -1.23831693      -0.06609560       0.00000000
Si       1.46620588       0.75316815      -1.65595536       0.00000000
Si      -0.81005283       1.83498705       1.30000587       0.00000000
Si       0.82447763      -0.62522649       3.16312706       0.00000000
Si       0.34604847       2.77930206      -2.03158270       0.00000000
Si      -2.83061460      -0.88912449       2.14937549       0.00000000
Si       0.45150830       1.69753203       3.28949033       0.00000000
Si      -0.41139580       3.74917608       0.00236545       0.00000000
Si      -1.53161742      -3.49059514      -0.07699726       0.00000000
