10
Lattice="16.28999089631971 0.0 0.0 0.0 16.28999089631971 0.0 0.0 0.0 34.281931910070035" Properties=species:S:1:pos:R:3:initial_magmoms:R:1 pbc="T T T"
Si       1.44752940      -1.04586687       1.47676361       0.00000000
Si       1.34889345       1.35545944      -1.34515520       0.00000000
Si      -1.26840456       1.47288741       1.31001620       0.00000000
Si      -1.36609569      -1.36326123      -1.34563514       0.00000000
Si      -0.10511937      -2.35266696       2.76086265       0.00000000
Si       2.61710253       0.61465428       2.69936083       0.00000000
Si       2.70453096      -2.69728191       0.05224569       0.00000000
Si       2.70759348      -0.00117288      -2.70272046       0.00000000
Si      -0.00576666       2.71210322      -2.70248048       0.00000000
Si      -0.00612504      -2.71590138      -2.70309756       0.00000000
