10
Lattice="16.28999089631971 0.0 0.0 0.0 16.28999089631971 0.0 0.0 0.0 34.281931910070035" Properties=species:S:1:pos:R:3:initial_magmoms:R:1 pbc="T T T"
Si       0.74217240      -2.08339326       0.93020646       0.00000000
Si      -1.91751219      -0.07947891      -1.47731212       0.00000000
Si       0.08630442       1.99904364       1.44056187       0.00000000
Si       2.10476574       1.38057750      -0.34336802       0.00000000
Si      -0.36486342       1.22732118      -2.76141116       0.00000000
Si      -2.48808573      -0.19903122       2.16144273       0.00000000
Si       0.80470971       2.88784233      -1.53881394       0.00000000
Si      -1.17116955      -2.28957579       2.21310563       0.00000000
Si      -3.35194443       0.77038668       0.21607914       0.00000000
Si      -1.14780969       1.32291090       3.36329937       0.00000000
