10
Lattice="16.28999089631971 0.0 0.0 0.0 16.28999089631971 0.0 0.0 0.0 34.281931910070035" Properties=species:S:1:pos:R:3:initial_magmoms:R:1 pbc="T T T"
Si       1.05111225      -2.09383515      -0.18467687       0.00000000
Si       1.28208816       1.63183187      -1.15070797       0.00000000
Si      -1.76393007      -0.34580412      -1.60898909       0.00000000
Si      -0.72224973       0.95909004       2.16377391       0.00000000
Si       0.16786845      -3.21101964       1.69736796       0.00000000
Si      -0.80959671       3.20833898       1.57131323       0.00000000
Si      -3.24754834       1.31232307      -1.11334064       0.00000000
Si       1.05415848       3.54348944       0.21902739       0.00000000
Si      -0.11723913       2.49409578      -2.77793506       0.00000000
Si       1.12655124      -2.54622474      -2.53703579       0.00000000
