10
Lattice="16.28999089631971 0.0 0.0 0.0 16.28999089631971 0.0 0.0 0.0 34.281931910070035" Properties=species:S:1:pos:R:3:initial_magmoms:R:1 pbc="T T T"
Si      -1.35000117       1.35570267      -1.36006784       0.00000000
Si      -1.35246096      -1.35211398       1.36606719       0.00000000
Si       1.36438524      -1.36064343      -1.35900510       0.00000000
Si       1.36554183       1.37943720       1.38029420       0.00000000
Si       0.20595447      -2.50193712       2.69051608       0.00000000
Si      -2.70855459       2.71355562      -0.00075420       0.00000000
Si      -2.70855459      -0.00285075      -2.71701603       0.00000000
Si      -2.71042794      -2.71680340      -0.00188551       0.00000000
Si       0.00570150       2.71278999      -2.71677606       0.00000000
Si       2.71917567       2.71122615      -0.00082277       0.00000000
