10
Lattice="16.28999089631971 0.0 0.0 0.0 16.28999089631971 0.0 0.0 0.0 34.281931910070035" Properties=species:S:1:pos:R:3:initial_magmoms:R:1 pbc="T T T"
Si      -0.65094840      -1.85288976       1.27621419       0.00000000
Si      -1.20835962       0.22372686      -1.99740360       0.00000000
Si       2.05273548      -0.66445281      -0.98214362       0.00000000
Si       0.37730898       1.95392034       1.32955691       0.00000000
Si       3.31525935      -1.18763874       0.92571552       0.00000000
Si       0.33705639       1.21235067      -3.42205864       0.00000000
Si      -1.38373776      -2.01313449      -2.72476375       0.00000000
Si      -3.02640507      -1.77580548       1.36740418       0.00000000
Si       0.36574308      -3.75626942       0.34971018       0.00000000
Si       2.52745866       0.86004684      -2.71355355       0.00000000
