10
Lattice="16.28999089631971 0.0 0.0 0.0 16.28999089631971 0.0 0.0 0.0 34.281931910070035" Properties=species:S:1:pos:R:3:initial_magmoms:R:1 pbc="T T T"
Si      -0.12927744      -2.14860213       0.86020272       0.00000000
Si      -1.69806960       0.26088435      -1.57954090       0.00000000
Si       2.27247129       0.28632933      -0.65869341       0.00000000
Si      -0.65583540       0.32799915       2.76113690       0.00000000
Si       0.80668080      -1.55846430       2.97254105       0.00000000
Si       1.19107593      -3.34103339      -0.60528213       0.00000000
Si      -3.41322741       1.23844725      -0.23112891       0.00000000
Si       2.63621070       2.70842427      -0.10346293       0.00000000
Si       2.45992032      -0.68199714      -2.87385596       0.00000000
Si       3.67595253      -0.62499843       0.99688486       0.00000000
