10
Lattice="16.28999089631971 0.0 0.0 0.0 16.28999089631971 0.0 0.0 0.0 34.281931910070035" Properties=species:S:1:pos:R:3:initial_magmoms:R:1 pbc="T T T"
Si       1.35428544       1.35518139      -1.35725672       0.00000000
Si       1.35110889      -1.36203948       1.35886798       0.00000000
Si      -1.36213722       1.35190710       1.36181622       0.00000000
Si      -1.36080144      -1.35998694      -1.35674250       0.00000000
Si      -0.00884547      -2.68701921       2.72349532       0.00000000
Si       2.71186146       2.71362078       0.00006856       0.00000000
Si       2.71163340      -0.00268785      -2.71502768       0.00000000
Si      -0.00368154       2.71296918      -2.71444489       0.00000000
Si       2.71158453      -2.71740006      -0.00130271       0.00000000
Si      -0.00333945      -2.71707426      -2.71502768       0.00000000
