10
Lattice="16.28999089631971 0.0 0.0 0.0 16.28999089631971 0.0 0.0 0.0 34.281931910070035" Properties=species:S:1:pos:R:3:initial_magmoms:R:1 pbc="T T T"
Si       1.25840250       1.50838884      -1.25986170       0.00000000
Si      -0.45087462       1.12133844       2.04820945       0.00000000
Si      -1.92601557      -0.45929655      -1.36373601       0.00000000
Si       1.62396639      -1.75339044      -0.30456085       0.00000000
Si      -0.01084914      -0.63307827       3.52946399       0.00000000
Si       0.26770986       1.11897639      -3.44797579       0.00000000
Si       1.19487150      -2.12819076      -2.78235743       0.00000000
Si      -0.85379148      -0.96990660      -3.49963869       0.00000000
Si      -2.86616034       1.75594797      -1.65797800       0.00000000
Si       3.68665506      -0.65194209       0.36674831       0.00000000
