10
Lattice="16.28999089631971 0.0 0.0 0.0 16.28999089631971 0.0 0.0 0.0 34.281931910070035" Properties=species:S:1:pos:R:3:initial_magmoms:R:1 pbc="T T T"
Si       2.22252615      -0.68256729      -0.01827228       0.00000000
Si      -0.69380739       1.29718899      -1.82393692       0.00000000
Si      -0.70933176       1.57866390       1.61683966       0.00000000
Si      -0.96554088      -2.17135926       0.24113924       0.00000000
Si      -2.93322627       1.56942747      -1.16579203       0.00000000
Si       3.28626315       1.10832273       1.06394035       0.00000000
Si      -0.19275957      -0.04795776      -3.72445973       0.00000000
Si      -3.00866526       2.02181706       1.18656689       0.00000000
Si      -1.59286878      -2.44955988       2.47395700       0.00000000
Si       2.67340077      -1.80390573      -2.06648173       0.00000000
