10
Lattice="16.28999089631971 0.0 0.0 0.0 16.28999089631971 0.0 0.0 0.0 34.281931910070035" Properties=species:S:1:pos:R:3:initial_magmoms:R:1 pbc="T T T"
Si      -1.32564762      -1.03265568      -1.54728158       0.00000000
Si       2.28677391      -0.29452320      -0.44216860       0.00000000
Si      -0.10321344       2.33878788      -0.17867753       0.00000000
Si      -0.68321889      -0.66306816       2.17244724       0.00000000
Si       1.42236135      -0.30765294       3.17570854       0.00000000
Si       2.84991921      -1.44912582       1.51574218       0.00000000
Si      -3.41068617      -0.06809220      -1.18276159       0.00000000
Si       1.93842855       2.94720309       0.77796032       0.00000000
Si      -1.37608146      -3.36201165      -1.05022757       0.00000000
Si      -2.70912474       0.45787932       2.68396823       0.00000000
