10
Lattice="16.28999089631971 0.0 0.0 0.0 16.28999089631971 0.0 0.0 0.0 34.281931910070035" Properties=species:S:1:pos:R:3:initial_magmoms:R:1 pbc="T T T"
Si       1.34271954       1.34874684      -1.38742484       0.00000000
Si      -1.37137365      -1.37085237      -1.39003027       0.00000000
Si       1.55779641      -1.19917206       1.43661944       0.00000000
Si      -1.26254016       1.38492693       1.58499173       0.00000000
Si      -2.70249471       2.69195508      -0.00390814       0.00000000
Si       2.70218520       2.70959715       0.01117592       0.00000000
Si       2.70158247      -2.72543103      -0.01786090       0.00000000
Si      -2.73132801      -2.69583210      -0.02540293       0.00000000
Si       2.70497079      -0.01042560      -2.74828117       0.00000000
Si      -0.01062108       2.70480789      -2.74882968       0.00000000
