10
Lattice="16.28999089631971 0.0 0.0 0.0 16.28999089631971 0.0 0.0 0.0 34.281931910070035" Properties=species:S:1:pos:R:3:initial_magmoms:R:1 pbc="T T T"
Si       1.69749945      -0.54796302      -1.53140904       0.00000000
Si       0.33818040       2.13600086       1.06729998       0.00000000
Si       0.50852493      -1.92692781       1.57724400       0.00000000
Si      -1.80268398      -0.08351883      -1.79250038       0.00000000
Si       1.13715603      -2.75302629      -2.05479158       0.00000000
Si       1.58690664       1.03711395      -3.17773117       0.00000000
Si       0.47496753       3.78857249      -0.56088700       0.00000000
Si      -0.71467488       0.86423337      -3.70320492       0.00000000
Si       1.22326497      -3.70946106       0.13407671       0.00000000
Si       3.88218393      -0.64656639      -0.72585175       0.00000000
