10
Lattice="16.28999089631971 0.0 0.0 0.0 16.28999089631971 0.0 0.0 0.0 34.281931910070035" Properties=species:S:1:pos:R:3:initial_magmoms:R:1 pbc="T T T"
Si       1.40041872      -1.13033052      -1.46623905       0.00000000
Si       0.56034342       2.20506327       0.52338255       0.00000000
Si      -2.04164199      -0.60841521      -0.95663784       0.00000000
Si       0.08610894      -0.95643477       2.18886829       0.00000000
Si       0.34834536      -3.24172629      -1.22012892       0.00000000
Si      -1.93842855      -2.94720309      -0.77796032       0.00000000
Si      -1.13715603       2.75302629       2.05479158       0.00000000
Si       2.74502790       2.10645990       1.32893983       0.00000000
Si      -0.62863110       0.82609848       3.63203559       0.00000000
Si       3.62120184      -1.03816170      -0.75170034       0.00000000
