10
Lattice="16.28999089631971 0.0 0.0 0.0 16.28999089631971 0.0 0.0 0.0 34.281931910070035" Properties=species:S:1:pos:R:3:initial_magmoms:R:1 pbc="T T T"
Si      -1.47326760       1.19846807      -1.37637234       0.00000000
Si      -1.35690813      -1.35291149       1.37279330       0.00000000
Si       1.36262592       1.36078978       1.37101064       0.00000000
Si       1.28402667      -1.31485805      -1.57263994       0.00000000
Si       2.71542897      -2.70385748      -0.02838203       0.00000000
Si      -2.71990872       2.70122057       0.00613990       0.00000000
Si       2.71256193       2.71435031      -0.01591368       0.00000000
Si      -2.71404432      -2.71703609       0.00395614       0.00000000
Si      -0.00030951      -2.71340342       2.73275830       0.00000000
Si      -2.71313208       0.00495509       2.73436956       0.00000000
