10
Lattice="16.28999089631971 0.0 0.0 0.0 16.28999089631971 0.0 0.0 0.0 34.281931910070035" Properties=species:S:1:pos:R:3:initial_magmoms:R:1 pbc="T T T"
Si      -2.01018600      -1.05595364       0.60850463       0.00000000
Si      -0.36025335       1.71253675       1.60614369       0.00000000
Si       1.62499266      -1.36305502       1.18834955       0.00000000
Si      -0.15206715       0.61498171      -2.55637081       0.00000000
Si       0.11446983       3.23703640      -0.12526625       0.00000000
Si       0.77038668      -3.44670892       0.44542539       0.00000000
Si      -1.71748728      -3.27167287      -0.14076169       0.00000000
Si      -3.79672659       0.36385507      -0.13647645       0.00000000
Si       0.90227052       1.18935082       3.51400283       0.00000000
Si      -2.04724575      -1.37927986       2.93799749       0.00000000
