10
Lattice="16.28999089631971 0.0 0.0 0.0 16.28999089631971 0.0 0.0 0.0 34.281931910070035" Properties=species:S:1:pos:R:3:initial_magmoms:R:1 pbc="T T T"
Si       1.34344512      -1.29648526      -1.46980437       0.00000000
Si       0.45616887       2.33189721       0.16359347       0.00000000
Si       0.83670327      -1.42274091       1.77837621       0.00000000
Si      -2.02870773      -0.38413775      -1.43857351       0.00000000
Si      -3.34906110       0.80829351       0.02691133       0.00000000
Si      -2.41310286       1.39843134       2.13924967       0.00000000
Si      -1.96594236      -2.69930906      -1.21433527       0.00000000
Si       0.31716630      -3.44731328      -1.06555160       0.00000000
Si      -0.94731237       3.24322497      -1.49198479       0.00000000
Si       3.62691053      -0.91790892      -0.97360741       0.00000000
