10
Lattice="16.28999089631971 0.0 0.0 0.0 16.28999089631971 0.0 0.0 0.0 34.281931910070035" Properties=species:S:1:pos:R:3:initial_magmoms:R:1 pbc="T T T"
Si      -0.39400623      -1.86035058       1.46116532       0.00000000
Si      -1.62396639       1.75339044       0.30456085       0.00000000
Si       2.06268867       1.10144835       0.67130917       0.00000000
Si      -0.42909489      -0.37480032      -2.47779658       0.00000000
Si      -0.36556389       3.26177928      -0.95530085       0.00000000
Si       2.72891709      -0.98805366      -1.83099901       0.00000000
Si       1.91221794       2.82901914      -0.91772783       0.00000000
Si      -2.09456820      -1.02236040       2.99171731       0.00000000
Si      -0.77131521      -3.81427092       0.13160841       0.00000000
Si      -3.54998196       1.29409389      -1.05917516       0.00000000
