10
Lattice="16.28999089631971 0.0 0.0 0.0 16.28999089631971 0.0 0.0 0.0 34.281931910070035" Properties=species:S:1:pos:R:3:initial_magmoms:R:1 pbc="T T T"
Si      -0.86656677      -1.85898222      -1.21604937       0.00000000
Si       1.83495773       0.83422719      -1.33932726       0.00000000
Si      -1.79881089       1.80778275      -0.21004551       0.00000000
Si      -2.13661662      -0.54172395      -2.79205922       0.00000000
Si       0.57691849       2.20874481      -2.78650555       0.00000000
Si      -2.49620208      -0.07270227       2.75572035       0.00000000
Si       3.01552661       2.30283585       0.18087157       0.00000000
Si       1.94729357      -1.64789640       2.86617680       0.00000000
Si      -2.76273906      -2.69475696       0.32461579       0.00000000
Si      -3.52242321       0.74987757      -1.45866274       0.00000000
