10
Lattice="16.28999089631971 0.0 0.0 0.0 16.28999089631971 0.0 0.0 0.0 34.281931910070035" Properties=species:S:1:pos:R:3:initial_magmoms:R:1 pbc="T T T"
Si      -0.37730898      -1.95392034      -1.32955691       0.00000000
Si       0.39400623       1.86035058      -1.46116532       0.00000000
Si       1.83482415      -0.49169736       1.48581404       0.00000000
Si      -1.70056197       0.83799018       1.53055199       0.00000000
Si       1.08286146       0.51267888       3.43320027       0.00000000
Si      -1.16186796      -0.13802517       3.67207691       0.00000000
Si       1.67542650      -2.61837315      -2.31170052       0.00000000
Si       2.07793611      -2.79236664       1.81162970       0.00000000
Si       2.45669490       2.96179893      -0.78985615       0.00000000
Si      -1.02825738      -3.80681010      -0.05334272       0.00000000
