10
Lattice="16.28999089631971 0.0 0.0 0.0 16.28999089631971 0.0 0.0 0.0 34.281931910070035" Properties=species:S:1:pos:R:3:initial_magmoms:R:1 pbc="T T T"
Si       1.34677575       1.45046160      -1.39685238       0.00000000
Si      -0.96570378       0.76836672       2.12057865       0.00000000
Si      -1.56781476      -1.29933927      -1.45129212       0.00000000
Si       1.47457080      -1.71071064       1.10291893       0.00000000
Si      -2.08720512      -1.32051627       2.06891575       0.00000000
Si      -0.03854214      -2.47880043       2.78619701       0.00000000
Si       2.49056181      -0.07579737      -2.85133272       0.00000000
Si      -0.21102066       2.64963366      -2.83347182       0.00000000
Si       3.17721789       2.24795484      -0.07987695       0.00000000
Si      -3.40255746      -1.99451502       0.00970179       0.00000000
