10
Lattice="16.28999089631971 0.0 0.0 0.0 16.28999089631971 0.0 0.0 0.0 34.281931910070035" Properties=species:S:1:pos:R:3:initial_magmoms:R:1 pbc="T T T"
Si      -0.15047073       1.72757079      -1.58903700       0.00000000
Si       2.04046001      -1.11586500       0.45447583       0.00000000
Si      -0.17808228       1.02325635       2.15811738       0.00000000
Si      -2.06268867      -1.10144835      -0.67130917       0.00000000
Si       0.59015412       0.19564290      -3.25705961       0.00000000
Si       0.66622842      -2.08950201      -2.50230817       0.00000000
Si      -2.42825256       2.16033093      -1.62661001       0.00000000
Si      -3.68665506       0.65194209      -0.36674831       0.00000000
Si       3.30933698       0.39671037       1.74447136       0.00000000
Si       2.79790428      -2.08573902      -1.57947233       0.00000000
