10
Lattice="16.28999089631971 0.0 0.0 0.0 16.28999089631971 0.0 0.0 0.0 34.281931910070035" Properties=species:S:1:pos:R:3:initial_magmoms:R:1 pbc="T T T"
Si       1.35883102       1.34825814       1.40124390       0.00000000
Si      -1.35376416      -1.36775727       1.39774714       0.00000000
Si       1.44701694      -1.42389261      -1.38254652       0.00000000
Si      -1.43140230       1.38899943      -1.54425791       0.00000000
Si      -2.71542897       2.70385748       0.02838203       0.00000000
Si       2.71059803       2.71189979       0.00953381       0.00000000
Si       2.70905048      -2.72673423       0.07186868       0.00000000
Si      -2.72008791      -2.72738583       0.03714792       0.00000000
Si       0.00112089       2.70736120       2.76148315       0.00000000
Si      -2.71573848      -0.00954594       2.76114033       0.00000000
