10
Lattice="16.28999089631971 0.0 0.0 0.0 16.28999089631971 0.0 0.0 0.0 34.281931910070035" Properties=species:S:1:pos:R:3:initial_magmoms:R:1 pbc="T T T"
Si      -1.35334062       1.35606105      -1.36140484       0.00000000
Si      -1.34271954      -1.34874684       1.38742484       0.00000000
Si       1.36225125      -1.35917244      -1.36085633       0.00000000
Si       1.35946566       1.36085031       1.39860076       0.00000000
Si       0.21507687      -2.54791890       2.82404428       0.00000000
Si      -2.70721881       2.71089314      -0.00188551       0.00000000
Si      -2.71091664      -0.00237834      -2.71873013       0.00000000
Si       0.00373041       2.71225583      -2.71879869       0.00000000
Si       2.71738791       2.71433754       0.00167982       0.00000000
Si      -2.71409319      -2.71959921      -0.00260543       0.00000000
