10
Lattice="16.28999089631971 0.0 0.0 0.0 16.28999089631971 0.0 0.0 0.0 34.281931910070035" Properties=species:S:1:pos:R:3:initial_magmoms:R:1 pbc="T T T"
Si      -0.29269872       2.21571923       0.74926632       0.00000000
Si      -0.46628496       0.63837252      -2.32555043       0.00000000
Si      -1.06192881      -1.36643778       1.78584968       0.00000000
Si       2.48787396      -0.17503605       0.58618708       0.00000000
Si      -2.73103479      -2.15401041      -0.00925613       0.00000000
Si      -0.32975847       1.89239301       3.07875918       0.00000000
Si       1.71748728       3.27167287       0.14076169       0.00000000
Si      -1.84352301       0.16878069       3.39511302       0.00000000
Si      -0.28975023      -3.56527827       1.64213974       0.00000000
Si       3.70091111      -0.73213776      -1.40573140       0.00000000
