10
Lattice="16.28999089631971 0.0 0.0 0.0 16.28999089631971 0.0 0.0 0.0 34.281931910070035" Properties=species:S:1:pos:R:3:initial_magmoms:R:1 pbc="T T T"
Si      -1.51376454      -1.72361232       0.31635384       0.00000000
Si      -1.01669148       1.90337966       0.92650401       0.00000000
Si       0.03705975       0.32332622      -2.32949286       0.00000000
Si       1.70158824      -0.95433336       1.45855989       0.00000000
Si       3.38849919       0.31635247       0.56510368       0.00000000
Si      -1.42972443      -1.87048296       2.65726259       0.00000000
Si      -0.73217034      -3.25883079      -1.29290950       0.00000000
Si       0.32975847      -1.89239301      -3.07875918       0.00000000
Si      -0.05615163       1.99022165       3.05637307       0.00000000
Si       1.68699240       3.09181661      -1.33185380       0.00000000
