10
Lattice="16.28999089631971 0.0 0.0 0.0 16.28999089631971 0.0 0.0 0.0 34.281931910070035" Properties=species:S:1:pos:R:3:initial_magmoms:R:1 pbc="T T T"
Si      -0.55636866       1.76704146      -1.40751407       0.00000000
Si      -1.05621102      -2.05596090      -0.31398839       0.00000000
Si       2.05393998      -1.05156837      -0.37847274       0.00000000
Si      -0.38890746       0.84390345       2.15688323       0.00000000
Si       1.90866902       0.45690192       2.93035261       0.00000000
Si       0.65666849       1.20993975      -3.39943255       0.00000000
Si       2.85497630      -1.46098494       1.78190725       0.00000000
Si      -3.33399285      -1.62320076      -0.35156141       0.00000000
Si       0.29823732       3.85069536      -0.66458990       0.00000000
Si      -1.70336385      -0.48200481       3.55963211       0.00000000
