10
Lattice="16.28999089631971 0.0 0.0 0.0 16.28999089631971 0.0 0.0 0.0 34.281931910070035" Properties=species:S:1:pos:R:3:initial_magmoms:R:1 pbc="T T T"
Si      -0.05033610      -1.04044230      -2.03230262       0.00000000
Si      -0.92651004       2.10417930       0.04833755       0.00000000
Si       2.20887513       0.34303482       0.67840553       0.00000000
Si      -1.29135717      -1.45951884       1.38372239       0.00000000
Si       2.03981751      -1.80499716       1.66863969       0.00000000
Si       1.72509471       1.92215484       2.42352825       0.00000000
Si      -0.55801395       2.67015906       2.27474458       0.00000000
Si       0.22893966      -3.34718775       1.29500070       0.00000000
Si       1.09819035       0.30208176      -3.54818194       0.00000000
Si      -2.27111922      -1.13261112      -2.74684133       0.00000000
