10
Lattice="16.28999089631971 0.0 0.0 0.0 16.28999089631971 0.0 0.0 0.0 34.281931910070035" Properties=species:S:1:pos:R:3:initial_magmoms:R:1 pbc="T T T"
Si       0.92651004      -2.10417930      -0.04833755       0.00000000
Si       0.36849609       0.56597976       2.22640703       0.00000000
Si      -2.18468448       0.09860337      -0.80555729       0.00000000
Si       1.34100909       1.53052695      -1.17761930       0.00000000
Si       0.30573072       2.88115107       2.00216879       0.00000000
Si       2.65160475      -0.18202446       2.37519070       0.00000000
Si       0.24549030       3.55028237      -0.38814025       0.00000000
Si       3.13538517      -1.76114448       0.63006798       0.00000000
Si      -2.74502790      -2.10645990      -1.32893983       0.00000000
Si      -2.29527729       1.68368034      -2.45187942       0.00000000
