10
Lattice="16.28999089631971 0.0 0.0 0.0 16.28999089631971 0.0 0.0 0.0 34.281931910070035" Properties=species:S:1:pos:R:3:initial_magmoms:R:1 pbc="T T T"
Si       1.51355929      -0.55441386       1.76613756       0.00000000
Si       0.67009567       2.27675556      -0.39935045       0.00000000
Si       0.78588499      -1.19866707      -1.94460939       0.00000000
Si      -2.52043834       0.01161477       0.68221083       0.00000000
Si       0.96613384      -3.01083183       1.92695419       0.00000000
Si      -3.11585413       1.91962989      -0.57511401       0.00000000
Si      -1.30497628       3.46182048      -0.20147503       0.00000000
Si      -2.88417775      -2.41048017       0.12698035       0.00000000
Si       1.21563148       1.36321236       3.40292931       0.00000000
Si       2.96646439      -0.50231844      -2.45129663       0.00000000
