10
Lattice="16.28999089631971 0.0 0.0 0.0 16.28999089631971 0.0 0.0 0.0 34.281931910070035" Properties=species:S:1:pos:R:3:initial_magmoms:R:1 pbc="T T T"
Si       1.20873429      -1.38666996      -1.40498749       0.00000000
Si      -1.26203354       1.30284162      -1.45441520       0.00000000
Si      -1.35363710      -1.35464382       1.33578594       0.00000000
Si       1.36588392       1.36187658       1.33023226       0.00000000
Si       2.37529377       0.33140376      -2.52102440       0.00000000
Si       0.60276258       2.19512637      -2.64941477       0.00000000
Si      -2.38316836      -0.41920686      -2.70325731       0.00000000
Si      -0.56189097      -2.19491460      -2.94971304       0.00000000
Si      -2.70750293       0.00319284       2.69091718       0.00000000
Si       0.00744453      -2.70945054       2.68951162       0.00000000
