10
Lattice="16.28999089631971 0.0 0.0 0.0 16.28999089631971 0.0 0.0 0.0 34.281931910070035" Properties=species:S:1:pos:R:3:initial_magmoms:R:1 pbc="T T T"
Si      -1.35719580      -1.35749457       1.35660537       0.00000000
Si      -1.35726096       1.35711990      -1.35715388       0.00000000
Si       1.35693389      -1.35721764      -1.35794236       0.00000000
Si       1.35888381       1.35907470       1.35698247       0.00000000
Si      -0.00146391      -2.71252935      -2.71523337       0.00000000
Si      -0.00023880       2.71432125      -2.71348499       0.00000000
Si       2.71342174       0.00019548       2.71537050       0.00000000
Si       2.71449688      -2.71448415       0.00003428       0.00000000
Si      -2.71429941      -0.00058644      -2.71475342       0.00000000
Si       2.71457833       2.71479366       0.00010285       0.00000000
