10
Lattice="16.28999089631971 0.0 0.0 0.0 16.28999089631971 0.0 0.0 0.0 34.281931910070035" Properties=species:S:1:pos:R:3:initial_magmoms:R:1 pbc="T T T"
Si      -1.04045486      -1.77782544       1.17624802       0.00000000
Si      -1.39398044       1.32411636      -1.39136727       0.00000000
Si       1.33527452      -1.37686338      -1.40021201       0.00000000
Si       0.90667322       1.78008975       1.39140155       0.00000000
Si      -2.40997145      -0.31079691       2.56288438       0.00000000
Si       2.59331375      -2.75138100       0.04696627       0.00000000
Si      -2.53776650       2.85037533       0.06311307       0.00000000
Si      -0.03403305       2.67801084      -2.76206252       0.00000000
Si       2.69973632       2.74344777       0.06763829       0.00000000
Si       2.67986252      -0.03383433      -2.76459938       0.00000000
