10
Lattice="16.28999089631971 0.0 0.0 0.0 16.28999089631971 0.0 0.0 0.0 34.281931910070035" Properties=species:S:1:pos:R:3:initial_magmoms:R:1 pbc="T T T"
Si      -0.67882059       1.60871895       1.52208435       0.00000000
Si      -1.50755805       0.11714139      -1.81577782       0.00000000
Si      -0.37551708      -2.03356215       1.21862051       0.00000000
Si       2.24443620      -0.01140300      -0.89037083       0.00000000
Si       1.78004088      -2.89391850       1.08677213       0.00000000
Si       2.45843793      -2.40103197      -1.12050557       0.00000000
Si       1.12467789       1.64312343       3.11852624       0.00000000
Si      -1.92432630      -2.16733563      -2.31176909       0.00000000
Si      -1.95644366      -3.16480491      -0.17600354       0.00000000
Si      -0.85207614       3.68704602       0.37175348       0.00000000
