10
Lattice="16.28999089631971 0.0 0.0 0.0 16.28999089631971 0.0 0.0 0.0 34.281931910070035" Properties=species:S:1:pos:R:3:initial_magmoms:R:1 pbc="T T T"
Si       2.15555796      -0.86035635      -0.13184838       0.00000000
Si      -1.58092658      -1.13124276      -1.39462405       0.00000000
Si       0.37551708       2.03356215      -1.21862051       0.00000000
Si      -0.42049377      -0.33995601       2.37296237       0.00000000
Si      -2.39556572       0.84510891       2.57083779       0.00000000
Si       1.87587495      -3.11903001       0.32101619       0.00000000
Si      -0.30330351       3.64228110       0.30346383       0.00000000
Si       2.83395501      -0.36746982      -2.33912609       0.00000000
Si       3.53551644       0.15850170       1.52760374       0.00000000
Si      -1.54880922      -0.13377348      -3.53038960       0.00000000
