10
Lattice="16.28999089631971 0.0 0.0 0.0 16.28999089631971 0.0 0.0 0.0 34.281931910070035" Properties=species:S:1:pos:R:3:initial_magmoms:R:1 pbc="T T T"
Si       0.73940310       2.21275215       0.29389917       0.00000000
Si       2.06140176      -1.13792166      -0.39842484       0.00000000
Si      -1.80349848      -0.03440448      -1.59644190       0.00000000
Si      -0.20302227      -0.92488104       2.23850856       0.00000000
Si       2.03768352       0.15252327       1.63569473       0.00000000
Si      -1.12467789      -1.64312343      -3.11852624       0.00000000
Si       2.76337044      -0.54131670      -2.49867429       0.00000000
Si      -3.72670307      -0.68354469      -0.31930209       0.00000000
Si       1.78505820       2.90945983      -1.71660014       0.00000000
Si      -0.90073926       3.42497969       1.51776482       0.00000000
