10
Lattice="16.28999089631971 0.0 0.0 0.0 16.28999089631971 0.0 0.0 0.0 34.51007289658418" Properties=species:S:1:pos:R:3:initial_magmoms:R:1 pbc="T T T"
Si      -1.70724576      -0.96669747       1.37911098       0.00000000
Si       1.08177003       1.79258418       1.32077512       0.00000000
Si       1.66127049      -1.91246229       0.24989314       0.00000000
Si      -0.78136614       0.27306927      -2.72353648       0.00000000
Si      -1.68597753      -2.35923183      -1.85053467       0.00000000
Si       2.26243665       0.29685267       2.74029254       0.00000000
Si      -0.48312882      -2.43965556       2.75733708       0.00000000
Si       1.24134687       1.99451502      -2.98208609       0.00000000
Si      -3.32578988      -2.00182923      -0.06284288       0.00000000
Si       2.04444387      -1.53339399      -3.09445095       0.00000000
