10
Lattice="16.28999089631971 0.0 0.0 0.0 16.28999089631971 0.0 0.0 0.0 34.51007289658418" Properties=species:S:1:pos:R:3:initial_magmoms:R:1 pbc="T T T"
Si       0.02783961      -1.86421294       1.44355716       0.00000000
Si      -2.35699033      -0.39991950      -0.48645426       0.00000000
Si       0.19192878       2.01539880       1.38647746       0.00000000
Si       1.60252875       0.75676824      -1.83607494       0.00000000
Si      -1.47095442      -1.33558452      -2.75711479       0.00000000
Si      -0.48558861      -0.80633871       3.46398501       0.00000000
Si      -3.33425349       1.20016575       0.99126789       0.00000000
Si      -1.09154403       0.82251468      -3.52358394       0.00000000
Si      -0.67792464       3.72034278       0.00583221       0.00000000
Si       3.88319391       0.55718316      -0.38972247       0.00000000
