10
Lattice="16.28999089631971 0.0 0.0 0.0 16.28999089631971 0.0 0.0 0.0 34.51007289658418" Properties=species:S:1:pos:R:3:initial_magmoms:R:1 pbc="T T T"
Si      -1.35713619      -1.35773892      -1.35576348       0.00000000
Si      -1.35646830       1.35780408       1.35738546       0.00000000
Si       1.35791811      -1.35731538       1.35697133       0.00000000
Si       1.35790182       1.35827649      -1.35779958       0.00000000
Si      -2.71106977      -0.00159642      -2.71528856       0.00000000
Si      -2.71322819       0.00105885       2.71501248       0.00000000
Si      -0.00421911      -2.70880057      -2.71942977       0.00000000
Si      -2.71402314       2.71441899      -0.00020706       0.00000000
Si      -2.71478714      -2.71408016       0.00020706       0.00000000
Si       0.00097740      -2.71594048       2.71414973       0.00000000
