10
Lattice="16.28999089631971 0.0 0.0 0.0 16.28999089631971 0.0 0.0 0.0 34.51007289658418" Properties=species:S:1:pos:R:3:initial_magmoms:R:1 pbc="T T T"
Si       0.62907093      -1.08092295       1.99844493       0.00000000
Si       1.87890489      -0.34293708      -1.40621724       0.00000000
Si      -2.05768764      -1.04611122      -0.59833598       0.00000000
Si      -0.09568746       2.31818103       0.73889558       0.00000000
Si       2.84726394      -0.19008801       2.12896210       0.00000000
Si      -2.92754106       0.65883276      -1.97898124       0.00000000
Si      -2.87759592      -1.37704257       1.69879380       0.00000000
Si      -2.34789399       2.89399995       0.72229623       0.00000000
Si       3.76204518      -0.56218419       0.00938675       0.00000000
Si       1.63357749      -2.50432686      -2.37453591       0.00000000
