10
Lattice="16.28999089631971 0.0 0.0 0.0 16.28999089631971 0.0 0.0 0.0 34.51007289658418" Properties=species:S:1:pos:R:3:initial_magmoms:R:1 pbc="T T T"
Si       1.35508365      -1.35397593      -1.35479720       0.00000000
Si      -1.35770634       1.35395964      -1.36031881       0.00000000
Si      -1.35863487      -1.35641943       1.35707486       0.00000000
Si       1.35687555       1.35860229       1.35776507       0.00000000
Si       0.00667890      -2.69804754      -2.70863847       0.00000000
Si       2.69276958      -0.00234576      -2.71809423       0.00000000
Si       2.71259451      -2.71264338      -0.00013804       0.00000000
Si       2.71368594       0.00130320       2.71452934       0.00000000
Si      -0.00174303      -2.71393029       2.71449483       0.00000000
Si       2.71070487       2.71852407       0.00027608       0.00000000
