10
Lattice="16.28999089631971 0.0 0.0 0.0 16.28999089631971 0.0 0.0 0.0 34.51007289658418" Properties=species:S:1:pos:R:3:initial_magmoms:R:1 pbc="T T T"
Si       0.92453895       1.74667896       1.20398810       0.00000000
Si       1.45341009      -1.26698733      -1.36256197       0.00000000
Si      -1.28769192       1.45241640      -1.37871269       0.00000000
Si      -1.29251376      -1.23023709       1.60889501       0.00000000
Si       1.63098738       0.60313725       3.13451716       0.00000000
Si      -2.54058840      -2.59203222       0.09241803       0.00000000
Si       0.08434962      -2.61586449      -2.74807315       0.00000000
Si      -2.63477718       0.10500534      -2.75024729       0.00000000
Si      -2.55060675       2.83589352       0.12523712       0.00000000
Si       2.74822074       2.72919402       0.07964929       0.00000000
