10
Lattice="16.28999089631971 0.0 0.0 0.0 16.28999089631971 0.0 0.0 0.0 34.51007289658418" Properties=species:S:1:pos:R:3:initial_magmoms:R:1 pbc="T T T"
Si      -1.81573227       1.04037714       1.12571921       0.00000000
Si      -1.24807464      -1.36179513      -1.51647698       0.00000000
Si       1.29251376       1.23023709      -1.60889501       0.00000000
Si      -0.67557888      -1.20003543       3.01825266       0.00000000
Si      -3.18557466      -1.05163353       1.22500474       0.00000000
Si       2.21705271       2.97691605      -0.40490691       0.00000000
Si       2.92350114       1.83337434       1.52562216       0.00000000
Si      -2.37622230      -2.96148942      -0.06028913       0.00000000
Si      -2.84809473       2.75126697      -0.17610500       0.00000000
Si       0.00482184       2.68265349      -2.98760770       0.00000000
