10
Lattice="16.28999089631971 0.0 0.0 0.0 16.28999089631971 0.0 0.0 0.0 34.51007289658418" Properties=species:S:1:pos:R:3:initial_magmoms:R:1 pbc="T T T"
Si       1.33732755       1.34625447       1.37663864       0.00000000
Si      -1.18066662       1.49573151      -1.41951743       0.00000000
Si      -1.38162006      -1.36821339       1.37180722       0.00000000
Si       1.40087484      -1.38699576      -1.47935793       0.00000000
Si      -0.60116616      -2.20931496      -2.49039941       0.00000000
Si      -2.26243665      -0.29685267      -2.74029254       0.00000000
Si       2.69083107       2.68431998      -0.00607723       0.00000000
Si       2.66885586      -2.72451879       0.01403180       0.00000000
Si       2.68679115      -0.00364896       2.73240212       0.00000000
Si      -0.02409291       2.70723339       2.73229859       0.00000000
