10
Lattice="16.28999089631971 0.0 0.0 0.0 16.28999089631971 0.0 0.0 0.0 34.51007289658418" Properties=species:S:1:pos:R:3:initial_magmoms:R:1 pbc="T T T"
Si       1.35558864       1.34015616       1.36159569       0.00000000
Si      -1.35391077       1.35500287      -1.35797213       0.00000000
Si       1.36041048      -1.35842310      -1.35710938       0.00000000
Si      -1.34109054      -1.35544203       1.38644295       0.00000000
Si      -2.71217097       2.71234106       0.00189806       0.00000000
Si      -2.71174743      -0.00151164      -2.71477091       0.00000000
Si       0.00302994       2.71362797      -2.71515052       0.00000000
Si      -2.71093293      -2.71793763       0.00345101       0.00000000
Si       0.00291591      -2.71681362      -2.71501248       0.00000000
Si       2.72049516       2.71151027      -0.00124236       0.00000000
