10
Lattice="16.28999089631971 0.0 0.0 0.0 16.28999089631971 0.0 0.0 0.0 34.51007289658418" Properties=species:S:1:pos:R:3:initial_magmoms:R:1 pbc="T T T"
Si       1.26291483      -1.38347712      -1.50394982       0.00000000
Si      -1.59000174      -1.31486364       1.30755288       0.00000000
Si      -1.42832349       1.34434854      -1.48949009       0.00000000
Si       1.97982144       0.80215218       1.25872110       0.00000000
Si       2.60068221       2.65997781      -0.11101897       0.00000000
Si       3.47514570      -1.08921456       1.07875097       0.00000000
Si       2.55060675      -2.83589352      -0.12523712       0.00000000
Si       2.63130741      -0.01739772      -2.87148124       0.00000000
Si      -0.08723295       2.69979057      -2.87593304       0.00000000
Si      -2.80552896       2.77522909      -0.14690946       0.00000000
