10
Lattice="16.28999089631971 0.0 0.0 0.0 16.28999089631971 0.0 0.0 0.0 34.51007289658418" Properties=species:S:1:pos:R:3:initial_magmoms:R:1 pbc="T T T"
Si       1.57450995       0.39724142      -1.77951501       0.00000000
Si       1.83949938       0.68324658       1.40173369       0.00000000
Si      -0.70643214      -2.02608408       1.14835369       0.00000000
Si      -1.91990682       1.67678672       0.06286669       0.00000000
Si       0.48716874       2.08731101       2.65479513       0.00000000
Si      -2.22003378      -0.68215418       2.64317558       0.00000000
Si       3.40302987       1.50779425      -0.06129265       0.00000000
Si      -0.86827329       3.55675045       1.19674719       0.00000000
Si       1.71655875      -1.51656546      -3.11215673       0.00000000
Si      -3.78709920       0.45738247       1.24682823       0.00000000
