10
Lattice="16.28999089631971 0.0 0.0 0.0 16.28999089631971 0.0 0.0 0.0 34.51007289658418" Properties=species:S:1:pos:R:3:initial_magmoms:R:1 pbc="T T T"
Si       1.90242765      -0.39991950       1.36394237       0.00000000
Si      -1.96890714       0.67222314       1.24598688       0.00000000
Si      -0.77004459      -1.80810366      -1.45905219       0.00000000
Si      -0.17708859       1.93549635      -1.73578862       0.00000000
Si       0.86170842       0.34661862       3.32401208       0.00000000
Si      -1.32810741      -0.55943118       3.19887848       0.00000000
Si      -3.21533649      -1.30140810      -1.01014491       0.00000000
Si       3.27355695       1.47018879       0.98574627       0.00000000
Si      -0.45589194      -1.18465767      -3.70162151       0.00000000
Si      -1.72357974       2.83361292       2.21430555       0.00000000
