10
Lattice="16.28999089631971 0.0 0.0 0.0 16.28999089631971 0.0 0.0 0.0 34.51007289658418" Properties=species:S:1:pos:R:3:initial_magmoms:R:1 pbc="T T T"
Si       1.35769005       1.35628911       1.35631564       0.00000000
Si       1.35700587      -1.35705474      -1.35755801       0.00000000
Si      -1.35775521      -1.35682668       1.35793762       0.00000000
Si      -1.35782037       1.35795069      -1.35766154       0.00000000
Si       2.71176372       0.00384444       2.71470189       0.00000000
Si       0.00342090       2.71037907       2.71749721       0.00000000
Si       2.71425609      -2.71485882      -0.00037961       0.00000000
Si       2.71494027       2.71459818       0.00031059       0.00000000
Si      -0.00091224      -2.71554300      -2.71459836       0.00000000
Si      -2.71573848      -2.71443528      -0.00027608       0.00000000
