10
Lattice="16.28999089631971 0.0 0.0 0.0 16.28999089631971 0.0 0.0 0.0 34.51007289658418" Properties=species:S:1:pos:R:3:initial_magmoms:R:1 pbc="T T T"
Si      -1.94382054      -0.57927240      -1.26952276       0.00000000
Si      -0.83106693      -1.01530683       2.04486100       0.00000000
Si       1.88558379      -1.54206027       0.25023268       0.00000000
Si       0.87891066       2.17109862      -0.92090181       0.00000000
Si      -0.53981802      -1.88346609      -2.55647312       0.00000000
Si      -0.23767110       1.15290846       3.09997256       0.00000000
Si       2.14711974       0.85916718      -2.55402290       0.00000000
Si      -2.63485863      -2.26738881       0.18072935       0.00000000
Si       0.76028688      -3.27596787      -1.09528131       0.00000000
Si       0.53328573       3.12570891       1.81495477       0.00000000
