10
Lattice="16.28999089631971 0.0 0.0 0.0 16.28999089631971 0.0 0.0 0.0 34.51007289658418" Properties=species:S:1:pos:R:3:initial_magmoms:R:1 pbc="T T T"
Si       0.83106693       1.01530683      -2.04486100       0.00000000
Si       0.59339583       2.16821529       1.05511156       0.00000000
Si       0.17708859      -1.93549635       1.73578862       0.00000000
Si      -1.80379170      -1.25208198      -1.86413165       0.00000000
Si       2.71665072      -0.52675344      -1.79462832       0.00000000
Si      -1.11275361       0.43603443      -3.31438376       0.00000000
Si      -0.27880335      -3.12015402      -1.96583289       0.00000000
Si      -1.79181855      -1.26327321       2.98177549       0.00000000
Si      -0.59295600      -3.74360001       0.27673643       0.00000000
Si      -1.11874833       2.79435402       2.57483249       0.00000000
