10
Lattice="16.28999089631971 0.0 0.0 0.0 16.28999089631971 0.0 0.0 0.0 34.51007289658418" Properties=species:S:1:pos:R:3:initial_magmoms:R:1 pbc="T T T"
Si       0.43813584      -1.25429742       1.89874527       0.00000000
Si       0.91478124      -0.37209618      -2.11957535       0.00000000
Si      -0.04461831       2.28063258       0.68609514       0.00000000
Si      -2.21819301      -0.89083494      -0.13051717       0.00000000
Si      -2.67186951       0.45406746       1.80473978       0.00000000
Si      -1.00043406      -0.02285487       3.38840791       0.00000000
Si      -2.84726394       0.19008801      -2.12896210       0.00000000
Si      -2.35366065       2.59869483       0.88035245       0.00000000
Si      -1.62787599      -3.24625491      -0.44749237       0.00000000
Si      -0.96835905      -0.15284907      -3.53517933       0.00000000
