10
Lattice="16.28999089631971 0.0 0.0 0.0 16.28999089631971 0.0 0.0 0.0 34.51007289658418" Properties=species:S:1:pos:R:3:initial_magmoms:R:1 pbc="T T T"
Si      -1.45341009       1.26698733       1.36256197       0.00000000
Si       1.34713413       1.37127591      -1.38416529       0.00000000
Si      -1.36906047      -1.34887716      -1.38551118       0.00000000
Si       1.41332040      -1.37029851       1.59578117       0.00000000
Si       2.68152948      -2.68222995      -0.03733992       0.00000000
Si       2.70213633       2.70774009       0.00704006       0.00000000
Si      -2.73991284      -2.68529247      -0.02757356       0.00000000
Si       2.69920413       0.01293426      -2.74648569       0.00000000
Si      -0.01479132      -2.70296712      -2.74669275       0.00000000
Si      -2.74110201       2.71940373      -0.01615072       0.00000000
