10
Lattice="16.28999089631971 0.0 0.0 0.0 16.28999089631971 0.0 0.0 0.0 34.51007289658418" Properties=species:S:1:pos:R:3:initial_magmoms:R:1 pbc="T T T"
Si       2.21224716      -0.72016461      -0.17082496       0.00000000
Si      -0.75021966      -0.50901363      -2.17247932       0.00000000
Si      -0.49208832       2.30513274      -0.08617170       0.00000000
Si      -0.68779638      -1.17069714       1.94478173       0.00000000
Si      -1.70603541      -2.81250108       0.52983345       0.00000000
Si       0.72646884       1.02007980      -3.25043656       0.00000000
Si       2.72236851      -0.08343738      -2.41015033       0.00000000
Si      -3.05926200      -0.19095138      -1.97822201       0.00000000
Si       3.36745251       0.51083811       1.51450991       0.00000000
Si       1.02011238       3.31402131       1.37681464       0.00000000
