10
Lattice="16.28999089631971 0.0 0.0 0.0 16.28999089631971 0.0 0.0 0.0 34.51007289658418" Properties=species:S:1:pos:R:3:initial_magmoms:R:1 pbc="T T T"
Si       1.34144892       1.34974053      -1.37650405       0.00000000
Si      -1.40395365       1.31090517       1.38789238       0.00000000
Si      -1.37332845      -1.36647036      -1.37256990       0.00000000
Si       1.29419163      -1.45577214       1.45332351       0.00000000
Si      -2.02481442      -0.54692046       2.75763245       0.00000000
Si      -0.52949016      -2.43828720       2.57766232       0.00000000
Si       2.69677692       2.68959370       0.01035303       0.00000000
Si      -2.73628017       2.69087409      -0.01542601       0.00000000
Si       2.69812899      -0.00783549      -2.73482128       0.00000000
Si      -0.01686015       2.70574198      -2.73544246       0.00000000
