10
Lattice="16.28999089631971 0.0 0.0 0.0 16.28999089631971 0.0 0.0 0.0 34.51007289658418" Properties=species:S:1:pos:R:3:initial_magmoms:R:1 pbc="T T T"
Si      -1.82368179      -0.98251506       1.12433880       0.00000000
Si       1.40732568      -1.28844126      -1.43517120       0.00000000
Si      -1.29419163       1.45577214      -1.45332351       0.00000000
Si       1.87927956       0.47908890       1.60289025       0.00000000
Si      -3.31900605       0.90885168       1.30430893       0.00000000
Si       2.63334366       2.65285908       0.09787062       0.00000000
Si       0.05232348      -2.62490544      -2.82637655       0.00000000
Si      -2.69814528       2.76667731      -0.06543113       0.00000000
Si      -2.74822074      -2.72919402      -0.07964929       0.00000000
Si      -1.11723336      -2.12605677       3.05486787       0.00000000
