10
Lattice="16.28999089631971 0.0 0.0 0.0 16.28999089631971 0.0 0.0 0.0 34.51007289658418" Properties=species:S:1:pos:R:3:initial_magmoms:R:1 pbc="T T T"
Si      -0.35966691      -2.11356464      -1.17686316       0.00000000
Si      -1.76456538       1.74430551       0.44452388       0.00000000
Si       1.84013373       0.85168518       1.63790561       0.00000000
Si       0.90805349       0.90157820      -2.29550780       0.00000000
Si      -0.70654617      -1.88558609       1.79883652       0.00000000
Si      -1.96149519      -0.44781894       3.17925056       0.00000000
Si      -3.59308530       0.63375268      -1.27369848       0.00000000
Si       2.77105022       2.74262187       0.37060388       0.00000000
Si      -3.32809587       0.91975783       1.90755022       0.00000000
Si       3.28368023       1.55672616      -1.59778276       0.00000000
