10
Lattice="16.28999089631971 0.0 0.0 0.0 16.28999089631971 0.0 0.0 0.0 34.51007289658418" Properties=species:S:1:pos:R:3:initial_magmoms:R:1 pbc="T T T"
Si       0.65376657      -1.46082204       1.69661966       0.00000000
Si      -1.09895598      -1.66886163      -1.23894682       0.00000000
Si       1.76508912       1.10099223      -1.18103888       0.00000000
Si      -1.69236810       1.79771553       0.40859949       0.00000000
Si       0.94037283       0.36323442       3.24757222       0.00000000
Si       0.32674482       2.39932152      -2.53342038       0.00000000
Si      -2.41333092      -0.31723146      -2.56033825       0.00000000
Si       2.56727209      -2.53296468       0.27922116       0.00000000
Si      -2.67486687      -2.71845891       0.24391733       0.00000000
Si      -0.86713299       3.70476954      -0.88528739       0.00000000
