10
Lattice="16.28999089631971 0.0 0.0 0.0 16.28999089631971 0.0 0.0 0.0 34.51007289658418" Properties=species:S:1:pos:R:3:initial_magmoms:R:1 pbc="T T T"
Si      -0.28660626      -1.82405646      -1.55095256       0.00000000
Si      -2.10114936       0.81451629       1.05742373       0.00000000
Si       1.35310346      -1.24870995       1.77399129       0.00000000
Si       1.18954697       2.26181763      -0.53135189       0.00000000
Si      -0.94037283      -0.36323442      -3.24757222       0.00000000
Si       0.76600632       0.53502876       3.28677569       0.00000000
Si       1.78512240       2.32831341       2.00520891       0.00000000
Si      -2.90875869       2.33862498      -0.66186906       0.00000000
Si      -1.48649508       1.03395888       3.36915128       0.00000000
Si       2.31853519       1.79132985      -2.79300529       0.00000000
