10
Lattice="16.28999089631971 0.0 0.0 0.0 16.28999089631971 0.0 0.0 0.0 34.51007289658418" Properties=species:S:1:pos:R:3:initial_magmoms:R:1 pbc="T T T"
Si      -1.37112930      -1.87010829       0.37819610       0.00000000
Si       1.51544241      -0.37121652       1.79373106       0.00000000
Si      -0.92274705       2.19144483      -0.18725176       0.00000000
Si       0.83421090      -0.41345649      -2.33488382       0.00000000
Si      -2.41184853      -1.12357017       2.33826581       0.00000000
Si       1.26516285      -2.68643277       2.11719416       0.00000000
Si      -3.27355695      -1.47018879      -0.98574627       0.00000000
Si       1.42353423      -2.71977840      -2.14783912       0.00000000
Si      -1.69222149       2.86617663       1.91772582       0.00000000
Si       0.78009552       3.83476374      -0.45508459       0.00000000
