10
Lattice="16.28999089631971 0.0 0.0 0.0 16.28999089631971 0.0 0.0 0.0 34.51007289658418" Properties=species:S:1:pos:R:3:initial_magmoms:R:1 pbc="T T T"
Si       0.81762768      -1.60912620      -1.53266221       0.00000000
Si       1.74601500      -0.09159867       1.73382154       0.00000000
Si      -1.15272927       2.13703623      -0.62062950       0.00000000
Si      -2.19447477      -1.00991484       0.78986699       0.00000000
Si       0.05866029      -1.05399558       3.15481397       0.00000000
Si      -1.18767132      -1.59342264      -2.69368525       0.00000000
Si      -1.09973790      -2.90278026       1.89249833       0.00000000
Si      -3.01594689      -2.13488595      -1.22203687       0.00000000
Si      -1.40066307       3.36930957       1.50129254       0.00000000
Si       2.57224054      -0.79755840      -2.88442252       0.00000000
