10
Lattice="16.28999089631971 0.0 0.0 0.0 16.28999089631971 0.0 0.0 0.0 34.51007289658418" Properties=species:S:1:pos:R:3:initial_magmoms:R:1 pbc="T T T"
Si       1.35675989       1.35674523      -1.35762703       0.00000000
Si       1.35594539      -1.35966114       1.35900743       0.00000000
Si      -1.35864845      -1.35865116      -1.35745448       0.00000000
Si      -1.35850074       1.35609363       1.36094000       0.00000000
Si      -0.01540545      -2.70470363       2.72063763       0.00000000
Si       2.71322819      -0.00105885      -2.71501248       0.00000000
Si      -0.00079495       2.71336014      -2.71521954       0.00000000
Si       2.71466171       2.71471221       0.00000000       0.00000000
Si      -0.00155895      -2.71513901      -2.71480542       0.00000000
Si      -2.71538892       2.71516833      -0.00034510       0.00000000
