10
Lattice="16.28999089631971 0.0 0.0 0.0 16.28999089631971 0.0 0.0 0.0 34.51007289658418" Properties=species:S:1:pos:R:3:initial_magmoms:R:1 pbc="T T T"
Si       1.35850074      -1.35609363      -1.36094000       0.00000000
Si      -1.35688817       1.35907470      -1.36128510       0.00000000
Si       1.36299352       1.36361961       1.35559093       0.00000000
Si      -1.35551981      -1.36664955       1.37067184       0.00000000
Si      -2.71436645      -2.71178001       0.00055216       0.00000000
Si       2.71482080       2.71456560      -0.00138040       0.00000000
Si       2.71444613      -2.71575477      -0.00193257       0.00000000
Si      -2.71809686       2.71414206      -0.00100079       0.00000000
Si      -0.00014771      -2.71474479      -2.71839447       0.00000000
Si      -2.71493660       0.00030951      -2.71863604       0.00000000
