10
Lattice="16.28999089631971 0.0 0.0 0.0 16.28999089631971 0.0 0.0 0.0 34.51007289658418" Properties=species:S:1:pos:R:3:initial_magmoms:R:1 pbc="T T T"
Si      -0.27601776       0.90414387       2.17710368       0.00000000
Si       0.82523511       1.90705401      -1.29388689       0.00000000
Si       1.69236810      -1.79771553      -0.40859949       0.00000000
Si      -1.98917190      -0.80301555      -1.33581665       0.00000000
Si      -2.33479683       0.15159474       1.40003993       0.00000000
Si       2.01911292       0.60160599      -2.94201987       0.00000000
Si      -0.72096282      -2.11494699      -2.96893774       0.00000000
Si       3.45745722      -0.69672330      -1.58963838       0.00000000
Si       0.59341212      -3.46657716      -1.64754631       0.00000000
Si       0.53159157      -0.61996482       3.89639647       0.00000000
