10
Lattice="16.28999089631971 0.0 0.0 0.0 16.28999089631971 0.0 0.0 0.0 34.51007289658418" Properties=species:S:1:pos:R:3:initial_magmoms:R:1 pbc="T T T"
Si      -2.16772659       0.82002231      -0.07857948       0.00000000
Si       0.59356592      -1.44088308       1.76029078       0.00000000
Si       0.50816885      -1.55999556      -1.68737096       0.00000000
Si       1.65487082       1.65503142       0.39334603       0.00000000
Si       2.80975526      -1.43228196       1.02605406       0.00000000
Si      -1.90070091       2.54606184      -1.52693354       0.00000000
Si       2.76645644      -1.94735547      -1.25406224       0.00000000
Si      -0.63420228      -3.46268385      -0.84045879       0.00000000
Si      -2.50641198       1.78865829       1.95927597       0.00000000
Si       3.28641695       0.73471158       1.75501074       0.00000000
