10
Lattice="16.28999089631971 0.0 0.0 0.0 16.28999089631971 0.0 0.0 0.0 34.51007289658418" Properties=species:S:1:pos:R:3:initial_magmoms:R:1 pbc="T T T"
Si      -0.61467057       0.22911885       2.29502466       0.00000000
Si       0.25516656       2.38756733      -0.31932188       0.00000000
Si      -1.93297140      -1.39750281      -0.45618891       0.00000000
Si       2.17777752      -1.04902713      -0.59716264       0.00000000
Si      -1.69947054      -3.00449502       1.30772543       0.00000000
Si       2.59167384       2.58512267      -1.04451696       0.00000000
Si      -1.73291391      -2.26505934      -2.66952818       0.00000000
Si       2.61835737      -2.74675464       0.96134764       0.00000000
Si       3.82711626       0.68418000      -0.47358200       0.00000000
Si      -1.48965534      -1.69631028       3.27680227       0.00000000
