10
Lattice="16.28999089631971 0.0 0.0 0.0 16.28999089631971 0.0 0.0 0.0 34.51007289658418" Properties=species:S:1:pos:R:3:initial_magmoms:R:1 pbc="T T T"
Si       2.25205992       0.59365647       0.39431231       0.00000000
Si      -0.40426893      -1.92652056       1.37974800       0.00000000
Si      -0.58709714       1.78373871       1.51278440       0.00000000
Si      -1.35310346       1.24870995      -1.77399129       0.00000000
Si       0.57299423      -3.52660581      -0.09797415       0.00000000
Si       0.43201894       3.57702336       0.23121762       0.00000000
Si      -1.63970972      -0.57534651      -3.32494385       0.00000000
Si       3.12191334      -1.11128751       1.77495757       0.00000000
Si      -2.71890593      -2.14275402       1.53224809       0.00000000
Si       3.63768732       0.53449119      -1.49266502       0.00000000
