10
Lattice="16.28999089631971 0.0 0.0 0.0 16.28999089631971 0.0 0.0 0.0 34.51007289658418" Properties=species:S:1:pos:R:3:initial_magmoms:R:1 pbc="T T T"
Si       2.21618934       0.00860112      -0.73423672       0.00000000
Si      -0.59356592       1.44088308      -1.76029078       0.00000000
Si      -0.19618047       0.52455429       2.28898539       0.00000000
Si      -1.05893864      -2.09655558      -0.23073448       0.00000000
Si      -0.08539707      -0.11911248      -3.44766174       0.00000000
Si       2.69285103       2.17559466      -0.00528004       0.00000000
Si      -2.42221616      -0.09185931       2.47982620       0.00000000
Si       1.23094245      -1.21202487       3.01007377       0.00000000
Si      -1.22776820      -2.02180077      -2.60074957       0.00000000
Si       1.06130490       3.09591450      -1.36694475       0.00000000
