10
Lattice="16.28999089631971 0.0 0.0 0.0 16.28999089631971 0.0 0.0 0.0 34.51007289658418" Properties=species:S:1:pos:R:3:initial_magmoms:R:1 pbc="T T T"
Si       1.09476456       1.55466873      -1.51085184       0.00000000
Si      -1.49381890      -1.05357204      -1.63560582       0.00000000
Si       2.00472396      -0.80444907       1.21889646       0.00000000
Si      -1.12898822       0.47048778       2.26165340       0.00000000
Si       3.37456635       1.28756160       1.11961092       0.00000000
Si       2.34220389       2.99845143      -0.18221329       0.00000000
Si      -1.55416895       2.92630302       1.89308562       0.00000000
Si       2.49008451       0.22556763      -2.98312139       0.00000000
Si      -0.21865090      -2.48516982      -3.00627766       0.00000000
Si       2.81407632      -2.71430496      -0.06639742       0.00000000
