10
Lattice="16.28999089631971 0.0 0.0 0.0 16.28999089631971 0.0 0.0 0.0 34.51007289658418" Properties=species:S:1:pos:R:3:initial_magmoms:R:1 pbc="T T T"
Si      -2.16226129       0.65580282      -0.54802026       0.00000000
Si       0.23742675      -0.09239688       2.31635190       0.00000000
Si      -0.34222032      -2.32756407      -0.38492557       0.00000000
Si       2.00140569       0.85607208      -0.97511716       0.00000000
Si       1.04340708      -2.38672935      -2.27190290       0.00000000
Si      -3.18137738      -1.13748183       0.73354652       0.00000000
Si       2.48963328      -0.66821580       2.33295125       0.00000000
Si       3.34362024       1.06684839       0.95389346       0.00000000
Si       2.88587124      -0.83403171      -2.33409008       0.00000000
Si      -0.47745990       1.96126713       3.24905616       0.00000000
