10
Lattice="16.28999089631971 0.0 0.0 0.0 16.28999089631971 0.0 0.0 0.0 34.51007289658418" Properties=species:S:1:pos:R:3:initial_magmoms:R:1 pbc="T T T"
Si      -1.42326937       1.81385892      -0.47492789       0.00000000
Si       0.87966000       0.59305374       2.11274235       0.00000000
Si       2.06902059       0.09643680      -1.15308571       0.00000000
Si      -0.44363046      -2.04850008      -1.12226820       0.00000000
Si       2.38227729      -1.36868580       2.01048895       0.00000000
Si       3.00725943       2.17380276      -0.70649061       0.00000000
Si      -0.44021281       3.78188640       0.43199733       0.00000000
Si      -3.55872547       1.32515892       0.61200197       0.00000000
Si      -2.66966614      -2.66491368      -0.93142739       0.00000000
Si       1.78427139       3.22535484       1.23974055       0.00000000
