10
Lattice="16.28999089631971 0.0 0.0 0.0 16.28999089631971 0.0 0.0 0.0 34.51007289658418" Properties=species:S:1:pos:R:3:initial_magmoms:R:1 pbc="T T T"
Si       1.34109054       1.35544203      -1.38644295       0.00000000
Si      -1.36984239      -1.36249560      -1.38299194       0.00000000
Si      -1.37720547       1.43088055       1.34258063       0.00000000
Si       1.42832349      -1.34434854       1.48949009       0.00000000
Si       2.69667918       2.69559819      -0.02484727       0.00000000
Si       2.69123832      -2.72782566      -0.01445973       0.00000000
Si       2.70150102      -0.00298107      -2.74355233       0.00000000
Si      -2.72416530      -2.73033432      -0.01307932       0.00000000
Si      -0.01282023       2.71044490      -2.74441508       0.00000000
Si      -0.16167825      -2.65921218       2.79704297       0.00000000
