10
Lattice="16.290000149 0.0 0.0 0.0 16.290000149 0.0 0.0 0.0 29.1751946751" Properties=species:S:1:pos:R:3:initial_magmoms:R:1 pbc="T T T"
Si      -1.39888747       1.42386004      -1.22544570       0.00000000
Si      -1.32616891      -1.38303730       1.37583508       0.00000000
Si       1.19998657      -1.47180151      -1.42838836       0.00000000
Si       1.30864087       1.44568864       1.36987459       0.00000000
H        3.22199913       1.72911836      -0.51088683       0.00000000
Si      -0.00371412       2.65507454      -2.65211272       0.00000000
Si       2.67136454      -2.68289786       0.02494479       0.00000000
Si       2.53127054      -0.14196735      -2.82929368       0.00000000
Si      -2.90421381       0.13927950      -2.51020457       0.00000000
Si       2.73600327       0.07843635       2.70371197       0.00000000
