10
Lattice="16.290000149 0.0 0.0 0.0 16.290000149 0.0 0.0 0.0 29.1751946751" Properties=species:S:1:pos:R:3:initial_magmoms:R:1 pbc="T T T"
Si      -1.33832125       1.15391845       1.55646163       0.00000000
Si      -1.30864087      -1.44568864      -1.36987459       0.00000000
Si       1.42736239      -1.36725229       1.33383739       0.00000000
Si       0.83466703       1.99666532      -1.09135476       0.00000000
H        1.91335826       0.28342971      -1.88076142       0.00000000
Si      -0.91088794       3.53877447      -0.63865960       0.00000000
Si      -2.74450665       2.51753807       0.30189324       0.00000000
Si      -2.70752834      -0.02182860      -2.59532029       0.00000000
Si       0.08408898       2.61363278       2.78102624       0.00000000
Si      -2.63480978      -2.82872595       0.00596049       0.00000000
