10
Lattice="16.290000149 0.0 0.0 0.0 16.290000149 0.0 0.0 0.0 29.1751946751" Properties=species:S:1:pos:R:3:initial_magmoms:R:1 pbc="T T T"
Si       1.35459496       1.36837630       1.33698247       0.00000000
Si      -1.32819865       1.36031275      -1.37394744       0.00000000
Si       1.38598579      -1.35533779      -1.33181846       0.00000000
Si      -1.34447724      -1.35517163       1.37674826       0.00000000
Si       2.70713738       0.00021177       2.67317721       0.00000000
Si      -2.69866658      -0.00925272      -2.69777190       0.00000000
Si       0.02858895      -2.71787249      -2.68230905       0.00000000
Si      -2.69125463       2.71244792      -0.02313593       0.00000000
Si       0.06032187      -2.69268815       2.71177599       0.00000000
Si      -0.01689273       2.71497287       2.69998922       0.00000000
