10
Lattice="16.290000149 0.0 0.0 0.0 16.290000149 0.0 0.0 0.0 29.1751946751" Properties=species:S:1:pos:R:3:initial_magmoms:R:1 pbc="T T T"
Si       0.44131239      -0.24770574       2.28179460       0.00000000
Si      -1.71683570       1.63113400       0.10106287       0.00000000
Si      -0.04777857      -2.29421846      -0.66682825       0.00000000
Si       1.86729014       0.90008767      -1.27192179       0.00000000
H       -0.91888633       0.16425207      -2.54098440       0.00000000
Si       2.15633990      -2.67783167       0.13729847       0.00000000
Si      -0.32285151       3.37002636      -0.81328773       0.00000000
Si       2.07414056      -1.98316091       2.36568525       0.00000000
Si      -3.77295951       0.62271784      -0.62367814       0.00000000
Si       3.46682154       1.71064550       0.28460402       0.00000000
