10
Lattice="16.290000149 0.0 0.0 0.0 16.290000149 0.0 0.0 0.0 29.1751946751" Properties=species:S:1:pos:R:3:initial_magmoms:R:1 pbc="T T T"
Si      -0.92750374       0.89425585      -0.79493653       0.00000000
Si       0.88503571      -1.56054943       1.50269758       0.00000000
H       -2.04760415      -0.34505478       1.41601807       0.00000000
Si       1.85676680      -1.94749232      -0.66204352       0.00000000
Si       1.91249489       0.58508794       1.92022379       0.00000000
Si      -1.42688998      -1.64724970       1.85933516       0.00000000
Si      -2.24779196      -0.56708749      -2.07631108       0.00000000
Si       0.41199039       2.21188880      -2.18542631       0.00000000
Si      -2.07681212       2.32422464       0.66507774       0.00000000
Si       3.08558667       1.98074999       0.37125435       0.00000000
