10
Lattice="16.290000149 0.0 0.0 0.0 16.290000149 0.0 0.0 0.0 29.1751946751" Properties=species:S:1:pos:R:3:initial_magmoms:R:1 pbc="T T T"
Si       1.25828848       1.36936999      -1.42468894       0.00000000
Si       1.37547874      -1.26454384       1.41662784       0.00000000
Si      -0.80990623      -1.85984561      -1.17981891       0.00000000
Si      -1.42706917       1.37569051       1.29289583       0.00000000
Si      -2.68389155      -2.66250278       0.01456426       0.00000000
Si      -0.05198139      -2.65544921       2.69762019       0.00000000
Si       2.66286116      -2.71331129       0.08818203       0.00000000
Si       2.64761372       2.74799271      -0.08409750       0.00000000
Si      -0.08330706       2.74496277       2.65627894       0.00000000
Si      -0.19355778       2.78528052      -2.64383280       0.00000000
