10
Lattice="16.290000149 0.0 0.0 0.0 16.290000149 0.0 0.0 0.0 29.1751946751" Properties=species:S:1:pos:R:3:initial_magmoms:R:1 pbc="T T T"
Si      -1.29901979      -1.29015009       1.47238747       0.00000000
Si      -1.44980003       1.38505726      -1.22607880       0.00000000
Si       1.36216514       1.39535254       1.31805069       0.00000000
Si       1.43207367      -1.30691739      -1.35232862       0.00000000
Si      -2.62369002      -2.62646784       0.13497612       0.00000000
Si      -0.12754072       2.71026506      -2.59117887       0.00000000
Si       0.08630561      -2.52082914      -2.83454230       0.00000000
Si       2.71104068      -2.68024259       0.03480601       0.00000000
Si       2.65599677       0.04212594       2.74991089       0.00000000
Si       0.01147863       2.72189612       2.72441177       0.00000000
