10
Lattice="16.290000149 0.0 0.0 0.0 16.290000149 0.0 0.0 0.0 29.1751946751" Properties=species:S:1:pos:R:3:initial_magmoms:R:1 pbc="T T T"
Si      -1.43338969       1.31966920      -1.28259991       0.00000000
Si      -1.38017026      -1.31698135       1.36405705       0.00000000
Si       1.33524244       1.40429575       1.33855793       0.00000000
Si       1.34646625      -1.27922113      -1.46045190       0.00000000
Si      -0.07768701       2.66018960      -2.59772432       0.00000000
Si       2.68592780      -2.61575048      -0.03880301       0.00000000
Si      -0.02399517      -2.68770341       2.70229406       0.00000000
Si      -2.75328696      -2.64399734       0.00011670       0.00000000
Si       2.69829191       0.06460614       2.70235241       0.00000000
Si      -2.74900269       0.06371019       2.68601430       0.00000000
