10
Lattice="16.290000149 0.0 0.0 0.0 16.290000149 0.0 0.0 0.0 29.1751946751" Properties=species:S:1:pos:R:3:initial_magmoms:R:1 pbc="T T T"
Si       1.38208760      -1.44926593       1.15708822       0.00000000
Si      -1.23164335      -1.35944303      -1.44726471       0.00000000
Si       1.41170282       1.29496379      -1.38675535       0.00000000
Si      -1.22135482       1.28802425       1.60244757       0.00000000
H        1.61189063       1.51699649       2.10557380       0.00000000
Si       2.23260479       0.21480157       2.54889088       0.00000000
Si      -2.50157876       2.63408325       0.09324392       0.00000000
Si      -2.53634162      -2.70411722      -0.08212817       0.00000000
Si       0.06640944       2.63077638      -2.76665454       0.00000000
Si      -2.69709134      -0.06787066      -2.72484648       0.00000000
