10
Lattice="16.290000149 0.0 0.0 0.0 16.290000149 0.0 0.0 0.0 29.1751946751" Properties=species:S:1:pos:R:3:initial_magmoms:R:1 pbc="T T T"
Si       1.36425493       1.35749458       1.34582256       0.00000000
Si       1.37015191      -1.36392913      -1.33561124       0.00000000
Si      -1.34832331       1.36045936      -1.36516571       0.00000000
Si      -1.35001747      -1.34706898       1.37709836       0.00000000
Si      -0.00931788       2.72003906       2.68157967       0.00000000
Si       2.71601543      -0.01796787       2.68581007       0.00000000
Si       2.72165177       0.01200573      -2.68198812       0.00000000
Si      -2.69677694      -2.70989039       0.02707458       0.00000000
Si       0.02335986      -2.72091872      -2.69809283       0.00000000
Si      -2.70827768       0.00589698      -2.71857382       0.00000000
