10
Lattice="16.290000149 0.0 0.0 0.0 16.290000149 0.0 0.0 0.0 29.1751946751" Properties=species:S:1:pos:R:3:initial_magmoms:R:1 pbc="T T T"
Si      -1.43077678       1.21557610      -1.38488814       0.00000000
Si       1.14930838      -1.42996879      -1.46001427       0.00000000
Si      -1.48422264      -1.20060559       1.38605515       0.00000000
Si       1.50317605       1.34444629       1.29931729       0.00000000
H        0.02920797      -2.66927942       0.75094034       0.00000000
H       -2.62508140      -0.23768739       1.67631916       0.00000000
H        2.07681212      -2.32422464      -0.66507774       0.00000000
Si      -0.19409535      -1.04617639       3.41203902       0.00000000
Si      -0.06662610       2.64660374      -2.68414709       0.00000000
Si      -2.86909257       2.46060452      -0.01750512       0.00000000
