10
Lattice="16.290000149 0.0 0.0 0.0 16.290000149 0.0 0.0 0.0 29.1751946751" Properties=species:S:1:pos:R:3:initial_magmoms:R:1 pbc="T T T"
Si       1.44503704      -1.19343799      -1.35787483       0.00000000
Si      -1.34564035      -1.46157139       1.23395319       0.00000000
Si      -1.35758906       1.24198219      -1.45683709       0.00000000
Si       1.42612435       1.35951454       1.27997706       0.00000000
Si      -2.70575273      -0.00335574       2.52149537       0.00000000
Si       0.08638587      -2.53834040      -2.70007966       0.00000000
Si       0.09655083       2.67395465       2.69972080       0.00000000
Si      -2.52818424       2.83336811      -0.16962750       0.00000000
Si       2.75517660      -0.03591945       2.64917186       0.00000000
Si       0.03973131      -2.80124472       2.60611803       0.00000000
