10
Lattice="16.290000149 0.0 0.0 0.0 16.290000149 0.0 0.0 0.0 29.1751946751" Properties=species:S:1:pos:R:3:initial_magmoms:R:1 pbc="T T T"
Si      -1.33746766      -1.34930071       1.37044642       0.00000000
Si       1.35075052      -1.36138789      -1.36140211       0.00000000
Si      -1.40479911       1.33751653      -1.33502773       0.00000000
Si       1.34288245       1.34643693       1.38955617       0.00000000
Si       2.64681551       2.69289992      -0.03859878       0.00000000
Si      -2.71686294       0.04704536       2.66804238       0.00000000
Si      -0.06032187       2.69268815      -2.71177599       0.00000000
Si       2.71567334      -0.01029528      -2.70900435       0.00000000
Si      -2.71673272      -2.70932024       0.01309966       0.00000000
Si      -0.07351677       2.70145217       2.72855173       0.00000000
