10
Lattice="16.290000149 0.0 0.0 0.0 16.290000149 0.0 0.0 0.0 29.1751946751" Properties=species:S:1:pos:R:3:initial_magmoms:R:1 pbc="T T T"
Si       1.24906834      -1.37059174       1.41327269       0.00000000
Si      -1.28738242       1.44876745       1.32844581       0.00000000
Si       1.90809659       0.79066774      -1.12124358       0.00000000
Si      -1.83993923      -0.88198948      -1.18411029       0.00000000
H        0.69545269      -1.82979056      -1.92033174       0.00000000
Si       1.25718076       1.21580416      -3.25285040       0.00000000
Si       2.66877443       0.05838336       2.64902890       0.00000000
Si      -2.71484255       0.05786208       2.60943816       0.00000000
Si       2.74752030      -2.60630717       0.13406585       0.00000000
Si      -3.47276739       0.85346569      -1.26800093       0.00000000
