10
Lattice="16.290000149 0.0 0.0 0.0 16.290000149 0.0 0.0 0.0 29.1751946751" Properties=species:S:1:pos:R:3:initial_magmoms:R:1 pbc="T T T"
Si       1.14085876      -0.96291820      -0.29026401       0.00000000
Si      -1.88726494       1.64590903      -0.26476489       0.00000000
H       -1.14882294      -1.80946064       1.93478221       0.00000000
Si      -1.53209406       1.40237353       2.09830918       0.00000000
Si      -0.17895608      -2.66056427      -1.42850506       0.00000000
Si       2.43098604      -0.80848900       1.73571986       0.00000000
Si       2.62508140       0.23768739      -1.67631916       0.00000000
Si      -0.24401117       2.69829191      -1.69382428       0.00000000
Si      -1.08040494      -0.73018297       2.99077838       0.00000000
Si      -2.94606607      -0.02493999      -1.67418937       0.00000000
