10
Lattice="16.290000149 0.0 0.0 0.0 16.290000149 0.0 0.0 0.0 29.1751946751" Properties=species:S:1:pos:R:3:initial_magmoms:R:1 pbc="T T T"
Si      -1.34791761      -1.35373159       1.35740511       0.00000000
Si      -1.36881768       1.35682669      -1.34036679       0.00000000
Si       1.33051191      -1.34946361      -1.39098576       0.00000000
Si       1.31419259       1.36635634       1.39445760       0.00000000
Si       0.03003575       2.69127092      -2.67495690       0.00000000
Si       2.68160941      -2.70848945      -0.03101323       0.00000000
Si      -2.69148424       0.01223379       2.70783734       0.00000000
Si       2.69073181       2.71466336       0.04478392       0.00000000
Si      -2.71863967      -2.70177797       0.00189639       0.00000000
Si       2.70312850       0.01741401       2.72493401       0.00000000
