10
Lattice="16.290000149 0.0 0.0 0.0 16.290000149 0.0 0.0 0.0 29.1751946751" Properties=species:S:1:pos:R:3:initial_magmoms:R:1 pbc="T T T"
Si      -0.53541972      -0.25616025       1.38599680       0.00000000
H       -0.67355893      -0.91908181      -1.62059454       0.00000000
H       -1.59902641       0.84483199      -1.16829150       0.00000000
H        1.27221643       1.75743038       0.42867114       0.00000000
Si       0.45745578      -0.98266168      -2.62585505       0.00000000
Si       2.18098667       1.83021410      -0.78767191       0.00000000
Si       2.51923223      -0.28961991      -1.72121979       0.00000000
Si       1.15329943      -1.18354996       2.69949324       0.00000000
Si      -2.33341220      -1.85160287       1.26722458       0.00000000
Si      -1.38535048       1.61852554       2.50142284       0.00000000
