10
Lattice="16.290000149 0.0 0.0 0.0 16.290000149 0.0 0.0 0.0 29.1751946751" Properties=species:S:1:pos:R:3:initial_magmoms:R:1 pbc="T T T"
Si      -1.43412274       1.34617629      -1.26179799       0.00000000
Si      -1.37989333      -1.34350147       1.33488186       0.00000000
Si       1.34671060       1.38753497       1.33966659       0.00000000
Si       1.35408997      -1.32945949      -1.40078862       0.00000000
Si      -0.10049301       2.68628618      -2.59030215       0.00000000
Si      -0.01042560      -2.69107544       2.67603638       0.00000000
Si       2.70016526      -2.67432932      -0.03524364       0.00000000
Si       2.70656723       0.03476286       2.69266624       0.00000000
Si      -2.73059498       0.03200985       2.68452636       0.00000000
Si      -0.06832026      -2.78917383      -2.62535323       0.00000000
