10
Lattice="16.290000149 0.0 0.0 0.0 16.290000149 0.0 0.0 0.0 29.1751946751" Properties=species:S:1:pos:R:3:initial_magmoms:R:1 pbc="T T T"
H       -0.06841800      -1.07927767      -1.05599617       0.00000000
Si       2.19719522       0.18924093       0.65603343       0.00000000
Si      -1.61839522      -0.67595356       1.56428641       0.00000000
Si      -0.45168912       2.13255650      -0.89246921       0.00000000
H       -1.89343559       2.42282801      -0.45081511       0.00000000
H        1.08040494       0.73018297      -2.99077838       0.00000000
Si      -3.15573141      -1.40115178      -0.04332516       0.00000000
H       -1.28573713      -3.24283567       0.67473473       0.00000000
Si       2.99121870      -2.07298397       0.44048709       0.00000000
Si       3.51139098      -0.07830603      -1.25505852       0.00000000
