10
Lattice="16.290000149 0.0 0.0 0.0 16.290000149 0.0 0.0 0.0 29.1751946751" Properties=species:S:1:pos:R:3:initial_magmoms:R:1 pbc="T T T"
Si       1.33746766       1.34930071      -1.37044642       0.00000000
Si      -1.37939528       1.39634607       1.29759596       0.00000000
Si       1.34947339      -1.35060391       1.38652195       0.00000000
Si      -1.37926506      -1.36001953      -1.35734676       0.00000000
Si      -0.11033380      -2.73926126       2.60152293       0.00000000
Si      -2.68409355       0.05167188       2.66273249       0.00000000
Si       2.68567694      -2.68341914      -0.02170634       0.00000000
Si       2.68035011       2.69573764       0.01910975       0.00000000
Si      -0.06733146       2.68681724      -2.70547415       0.00000000
Si       2.68821818      -0.01208718      -2.73184853       0.00000000
