10
Lattice="16.290000149 0.0 0.0 0.0 16.290000149 0.0 0.0 0.0 29.1751946751" Properties=species:S:1:pos:R:3:initial_magmoms:R:1 pbc="T T T"
Si       1.48688605      -1.28956528      -1.26351933       0.00000000
Si      -1.36236529       1.39779604      -1.36356107       0.00000000
Si      -1.43961247      -1.80089210       0.73419377       0.00000000
Si       1.05880114       1.67084903       1.40942448       0.00000000
H       -2.78666517      -1.23308785      -0.52579536       0.00000000
H        2.94606607       0.02493999       1.67418937       0.00000000
Si      -2.46669698       2.51633261       0.41224550       0.00000000
Si       0.06011010      -2.56104866      -2.66468723       0.00000000
Si      -0.60926230       3.35376894       1.66578692       0.00000000
Si       2.76711000      -2.63562428       0.24568431       0.00000000
