10
Lattice="16.290000149 0.0 0.0 0.0 16.290000149 0.0 0.0 0.0 29.1751946751" Properties=species:S:1:pos:R:3:initial_magmoms:R:1 pbc="T T T"
Si      -1.34959393      -1.33991767      -1.31583046       0.00000000
Si       1.39461949      -1.28619325       1.35863047       0.00000000
Si      -1.18366399       1.45298656       1.40878263       0.00000000
Si       1.38438937       1.33563340      -1.34287586       0.00000000
Si       2.27530577       0.60597172       2.42396270       0.00000000
Si       0.67210912       2.38286864       2.51458085       0.00000000
Si      -2.65961945       0.08734698      -2.61333889       0.00000000
Si       0.08329077      -2.66980070      -2.60785395       0.00000000
Si      -2.71816571      -2.59154354       0.12157304       0.00000000
Si       0.06349842      -2.64565892       2.72674287       0.00000000
