10
Lattice="16.290000149 0.0 0.0 0.0 16.290000149 0.0 0.0 0.0 29.1751946751" Properties=species:S:1:pos:R:3:initial_magmoms:R:1 pbc="T T T"
Si       1.35544204       1.34871427      -1.34030844       0.00000000
Si       1.39704670      -1.45303543       1.18915176       0.00000000
Si      -1.37507149      -1.36879984      -1.33817865       0.00000000
Si      -1.29919267       1.34925184       1.43711174       0.00000000
Si      -0.01848915      -2.78189220       2.42533393       0.00000000
Si       2.66382227       2.66134131       0.10514740       0.00000000
Si      -0.01822851       2.69538578      -2.67758267       0.00000000
Si      -2.70067025       2.68199214       0.06891181       0.00000000
Si       2.70879896      -0.03536559      -2.67816617       0.00000000
Si      -2.64751598      -0.03515382       2.74025098       0.00000000
