10
Lattice="16.290000149 0.0 0.0 0.0 16.290000149 0.0 0.0 0.0 29.1751946751" Properties=species:S:1:pos:R:3:initial_magmoms:R:1 pbc="T T T"
Si       1.35971817       1.35044101      -1.35393326       0.00000000
Si       1.37102343      -1.34153038       1.35720088       0.00000000
Si      -1.33767832       1.36355446       1.37310136       0.00000000
Si      -1.34805453      -1.37803627      -1.35227027       0.00000000
Si      -2.68764640      -0.04647537       2.67769937       0.00000000
Si       2.66959708      -2.69990462      -0.06007173       0.00000000
Si      -0.02921774       2.69938334      -2.68440966       0.00000000
Si      -2.69132794      -0.02070459      -2.72146216       0.00000000
Si       2.67816562      -0.01264104      -2.74424799       0.00000000
Si       2.72726368       0.04015485       2.70874177       0.00000000
