10
Lattice="16.290000149 0.0 0.0 0.0 16.290000149 0.0 0.0 0.0 29.1751946751" Properties=species:S:1:pos:R:3:initial_magmoms:R:1 pbc="T T T"
Si       1.34675947       1.36282141       1.35002378       0.00000000
Si      -1.34287431       1.35821134      -1.36283169       0.00000000
Si       1.35987292      -1.35562123      -1.35299965       0.00000000
Si      -1.36740868      -1.36487395       1.34442215       0.00000000
Si       2.68916951      -0.02096523       2.69170346       0.00000000
Si      -0.03313386      -2.69886206      -2.68195895       0.00000000
Si      -2.67765200      -0.01909188      -2.70745807       0.00000000
Si      -0.03943809       2.71321355       2.68648110       0.00000000
Si       2.69677694       2.70989039      -0.02707458       0.00000000
Si       2.68985369      -2.72565911       0.01948903       0.00000000
