10
Lattice="16.290000149 0.0 0.0 0.0 16.290000149 0.0 0.0 0.0 29.1751946751" Properties=species:S:1:pos:R:3:initial_magmoms:R:1 pbc="T T T"
Si      -0.47420190       2.02802357      -1.06626584       0.00000000
Si       1.59953140       0.81055783       1.55652581       0.00000000
Si       1.29267667      -1.50581503      -1.30900346       0.00000000
Si      -1.86729014      -0.90008767       1.27192179       0.00000000
H       -2.78617647      -0.73583560      -1.26906262       0.00000000
H        1.03097782       1.18630297      -2.74731138       0.00000000
H       -1.08351307       1.94238704      -2.46200715       0.00000000
Si      -2.19014165       2.46993869       0.45863406       0.00000000
Si       2.23140422      -2.55062306       0.51643012       0.00000000
Si       3.30397041      -0.78545494       1.56886692       0.00000000
