10
Lattice="16.290000149 0.0 0.0 0.0 16.290000149 0.0 0.0 0.0 29.1751946751" Properties=species:S:1:pos:R:3:initial_magmoms:R:1 pbc="T T T"
Si      -1.36998087       1.23813775      -1.44665203       0.00000000
Si       1.20115945      -1.40103775      -1.47095497       0.00000000
Si      -1.36415068      -1.43102764       1.29925894       0.00000000
Si       1.44678007       1.39536883       1.31781437       0.00000000
Si      -0.06149475       2.73538425       2.56342013       0.00000000
Si       2.55542861      -2.75893959      -0.16635696       0.00000000
Si       0.06662610      -2.64660374       2.68414709       0.00000000
Si      -2.77301415       2.55800243      -0.13359322       0.00000000
Si       2.73566117       2.64349235      -0.18374538       0.00000000
Si      -0.03886794       2.63622701      -2.78859428       0.00000000
