10
Lattice="16.290000149 0.0 0.0 0.0 16.290000149 0.0 0.0 0.0 29.1751946751" Properties=species:S:1:pos:R:3:initial_magmoms:R:1 pbc="T T T"
Si       1.43904180      -1.34809525       1.28793897       0.00000000
Si      -1.25817445      -1.36638892      -1.45619232       0.00000000
Si       1.37816659       1.32770017      -1.38911854       0.00000000
Si      -1.42948009       1.28130625       1.41237117       0.00000000
Si       0.08907372      -2.75812509       2.59253697       0.00000000
Si      -2.69153156       2.67245109      -0.01878883       0.00000000
Si      -0.02653641       2.69984272       2.66529991       0.00000000
Si      -2.59711472      -2.81110017      -0.19944163       0.00000000
Si      -2.72935695      -0.30467187       2.69316222       0.00000000
Si       2.75097540       2.69874152      -0.06018843       0.00000000
