10
Lattice="16.290000149 0.0 0.0 0.0 16.290000149 0.0 0.0 0.0 29.1751946751" Properties=species:S:1:pos:R:3:initial_magmoms:R:1 pbc="T T T"
Si       1.38175039      -1.35669637      -1.32425625       0.00000000
Si       1.33705063       1.32470281       1.40489357       0.00000000
Si      -1.35317773      -1.39756798       1.32043138       0.00000000
Si      -1.32905224       1.39543399      -1.36919480       0.00000000
Si      -0.03111390      -2.65246814      -2.66827986       0.00000000
Si      -2.65862576       2.70987410       0.05054894       0.00000000
Si       2.70301601       0.04642650      -2.66682373       0.00000000
Si      -2.70466130      -0.02831202       2.67944113       0.00000000
Si      -2.75517660       0.03591945      -2.64917186       0.00000000
Si       2.68700294       2.71972066       0.09453638       0.00000000
