10
Lattice="16.290000149 0.0 0.0 0.0 16.290000149 0.0 0.0 0.0 29.1751946751" Properties=species:S:1:pos:R:3:initial_magmoms:R:1 pbc="T T T"
Si       1.34265765       1.35943309       1.35635480       0.00000000
Si      -1.33739272       1.37492488      -1.35323305       0.00000000
Si       1.36305599      -1.35213517      -1.35081151       0.00000000
Si      -1.35273790      -1.34936587       1.37266373       0.00000000
Si      -2.69666291       0.00951336      -2.68417626       0.00000000
Si      -0.00741195      -2.72170064      -2.67463597       0.00000000
Si       2.67436190       0.00252495       2.72312515       0.00000000
Si       2.69125463      -2.71244792       0.02313593       0.00000000
Si      -2.68512959       2.72241740       0.01266203       0.00000000
Si       2.69102657       2.72595233      -0.00875256       0.00000000
