10
Lattice="16.290000149 0.0 0.0 0.0 16.290000149 0.0 0.0 0.0 29.1751946751" Properties=species:S:1:pos:R:3:initial_magmoms:R:1 pbc="T T T"
H        0.84639583       0.93538810       0.80666496       0.00000000
Si       1.43102764      -1.43927038      -1.12487881       0.00000000
Si      -1.29559258       1.29391471      -1.42596681       0.00000000
Si      -1.83050732      -0.82823248       1.16470295       0.00000000
H        1.65302777       0.18423990       2.46579993       0.00000000
H        2.28361367       1.84236644       1.35973912       0.00000000
Si      -2.38298267       2.71119359       0.07115830       0.00000000
Si       2.78057271      -0.04966821      -2.46862992       0.00000000
Si       0.07457562      -2.74450665      -2.52018249       0.00000000
Si      -1.20234862      -1.22710942       3.31368944       0.00000000
