10
Lattice="16.290000149 0.0 0.0 0.0 16.290000149 0.0 0.0 0.0 29.1751946751" Properties=species:S:1:pos:R:3:initial_magmoms:R:1 pbc="T T T"
H       -1.04606236       1.11412687       0.01928480       0.00000000
Si      -0.83341270      -1.92986980       1.01926460       0.00000000
Si       0.27608292      -0.73128417      -2.20850389       0.00000000
Si       1.86923028       0.89938883       1.12000655       0.00000000
Si       2.54556828      -1.22102674      -2.08981919       0.00000000
Si      -2.39624273      -2.70848294      -0.57355515       0.00000000
Si       0.93923254       1.71374711       3.11611502       0.00000000
H        0.17125677       3.27768487      -1.71144609       0.00000000
Si      -2.87932269       0.53066793       2.40024327       0.00000000
Si       0.93566503      -3.08701367       2.04917815       0.00000000
