10
Lattice="16.290000149 0.0 0.0 0.0 16.290000149 0.0 0.0 0.0 29.1751946751" Properties=species:S:1:pos:R:3:initial_magmoms:R:1 pbc="T T T"
H       -0.65355481       0.41928831      -0.04122455       0.00000000
Si       1.98825968       0.61960645       1.08406271       0.00000000
H       -1.80452477      -1.20164815       1.11008698       0.00000000
Si       0.76923010      -0.54275022      -2.49649223       0.00000000
Si       0.20971746       2.16787322       1.71570567       0.00000000
Si      -0.89495632      -2.04737609      -1.71366341       0.00000000
Si      -2.52675821      -1.27488799      -0.21470026       0.00000000
Si       2.62666478       0.29468610      -1.24295082       0.00000000
Si       1.23202900      -1.24103737       2.38186289       0.00000000
Si      -0.72676207       1.24774885      -2.61459342       0.00000000
