10
Lattice="16.290000149 0.0 0.0 0.0 16.290000149 0.0 0.0 0.0 29.1751946751" Properties=species:S:1:pos:R:3:initial_magmoms:R:1 pbc="T T T"
Si       1.27896701      -1.37332520       1.38713463       0.00000000
Si      -1.34576806      -1.21391175      -1.48221367       0.00000000
Si      -1.43207367       1.30691739       1.35232862       0.00000000
Si       1.33555847       1.40666106      -1.35284590       0.00000000
Si      -1.63029670       0.61170905      -3.05224760       0.00000000
Si      -0.29738210       2.59027618      -2.56715164       0.00000000
Si       2.60854053      -2.68776532      -0.03260912       0.00000000
Si      -2.82407678      -2.52064621      -0.10901603       0.00000000
Si      -0.06990854       2.70226993       2.67037931       0.00000000
Si       2.57996787      -0.04634668       2.81316271       0.00000000
