10
Lattice="16.290000149 0.0 0.0 0.0 16.290000149 0.0 0.0 0.0 29.1751946751" Properties=species:S:1:pos:R:3:initial_magmoms:R:1 pbc="T T T"
Si      -1.40303328       1.31986468       1.31305881       0.00000000
Si       1.36998087      -1.23813775       1.44665203       0.00000000
Si       1.33111293       1.39808926      -1.34194225       0.00000000
Si      -1.39122303      -1.37531584      -1.31294211       0.00000000
Si       2.57114032      -2.63917550      -0.02430294       0.00000000
Si      -0.10865756       2.72393237       2.63282792       0.00000000
Si       2.62968658       0.03971502      -2.75921486       0.00000000
Si       0.00583019      -2.66916539       2.74591097       0.00000000
Si      -2.72755690       2.69314427      -0.02144377       0.00000000
Si      -2.73203665      -0.01024641      -2.68884429       0.00000000
