10
Lattice="16.290000149 0.0 0.0 0.0 16.290000149 0.0 0.0 0.0 29.1751946751" Properties=species:S:1:pos:R:3:initial_magmoms:R:1 pbc="T T T"
Si      -0.65091583       0.42513642      -2.13160683       0.00000000
Si      -1.90809659      -0.79066774       1.12124358       0.00000000
Si       0.85724497       1.93616426       1.04045163       0.00000000
Si       1.70502545      -1.66886165      -0.12699466       0.00000000
H       -1.21264390      -2.62045829      -0.79908816       0.00000000
Si       2.17186427       0.67210912       2.51282451       0.00000000
Si      -0.65902825      -2.16125948       2.53451626       0.00000000
Si       3.43018533      -0.72873316       1.14842027       0.00000000
Si       0.83942371      -3.39697491       1.25530943       0.00000000
Si      -2.35535483       2.02114919      -2.14394793       0.00000000
