10
Lattice="16.290000149 0.0 0.0 0.0 16.290000149 0.0 0.0 0.0 29.1751946751" Properties=species:S:1:pos:R:3:initial_magmoms:R:1 pbc="T T T"
Si      -1.31191516      -1.36014985      -1.34544036       0.00000000
Si       1.31714425      -1.39158955       1.34150463       0.00000000
Si      -1.41889159       1.33084414       1.30217646       0.00000000
Si       1.30895038       1.28945125      -1.47050275       0.00000000
Si      -0.04577490       2.65786013       2.66611682       0.00000000
Si       2.69579954      -0.02767671       2.64645273       0.00000000
Si       2.68086161       2.69562035      -0.15839213       0.00000000
Si       2.64424169      -2.75053395      -0.02485727       0.00000000
Si      -2.77039146      -0.04509072       2.64855335       0.00000000
Si      -2.77070097       2.64935675      -0.10578926       0.00000000
