10
Lattice="16.290000149 0.0 0.0 0.0 16.290000149 0.0 0.0 0.0 29.1751946751" Properties=species:S:1:pos:R:3:initial_magmoms:R:1 pbc="T T T"
Si      -1.22435641       1.85409524       0.66857876       0.00000000
Si      -1.53733618      -0.72519823      -1.60761158       0.00000000
Si       1.61839522       0.67595356      -1.56428641       0.00000000
Si       0.07227873      -1.46150623       1.93142706       0.00000000
H        0.33265809      -2.56688211      -0.88955169       0.00000000
H        0.07143165       2.40213971       1.58928955       0.00000000
H        1.54997722      -0.40332411      -2.62028258       0.00000000
Si      -2.75605626      -2.04382487      -0.10934863       0.00000000
H       -0.27504036       3.09878157      -2.01510152       0.00000000
Si       2.31795299      -1.96726187       2.20727853       0.00000000
