10
Lattice="16.290000149 0.0 0.0 0.0 16.290000149 0.0 0.0 0.0 29.1751946751" Properties=species:S:1:pos:R:3:initial_magmoms:R:1 pbc="T T T"
Si       0.67341232      -2.04637751      -0.78338315       0.00000000
Si      -0.62700211      -0.51911343       2.17381458       0.00000000
Si      -1.81317476       0.88716970      -1.15148658       0.00000000
Si       1.75531268       1.51550758      -0.29744111       0.00000000
Si       0.13761792       1.52899570       3.05262979       0.00000000
Si      -2.84063394      -1.25846767      -1.56901279       0.00000000
H        0.93828772      -0.41259312      -3.40191522       0.00000000
Si       2.13905621       2.13436469       1.91377607       0.00000000
Si      -0.64008298       2.28283175      -2.70045602       0.00000000
Si       0.78548752       3.37538577      -1.20942852       0.00000000
