10
Lattice="16.290000149 0.0 0.0 0.0 16.290000149 0.0 0.0 0.0 29.1751946751" Properties=species:S:1:pos:R:3:initial_magmoms:R:1 pbc="T T T"
Si       0.46345050      -0.42002136       2.21311357       0.00000000
Si       1.82685836       1.29702610      -0.63566914       0.00000000
Si      -1.64932993       1.65706769      -0.09586969       0.00000000
Si      -0.65601460      -1.88229323      -1.29631225       0.00000000
H        1.82070074       0.15496677       2.48829400       0.00000000
Si       0.79931773       2.12866319      -2.58883172       0.00000000
Si      -2.07315827      -0.65560735      -2.67355649       0.00000000
Si      -3.41563836       0.64653382      -1.25144080       0.00000000
Si      -0.72848881       3.39017709      -1.37313054       0.00000000
Si       3.65181078      -0.15622110      -0.80447682       0.00000000
