10
Lattice="16.290000149 0.0 0.0 0.0 16.290000149 0.0 0.0 0.0 29.1751946751" Properties=species:S:1:pos:R:3:initial_magmoms:R:1 pbc="T T T"
Si      -0.62815870       0.39887694      -2.14898649       0.00000000
Si       1.49599216      -1.79049908       0.11810119       0.00000000
Si       0.97171480       1.99554131       0.87820253       0.00000000
Si      -2.12178881      -0.58999123       1.00006732       0.00000000
H        0.07320726      -0.82846054       2.57336887       0.00000000
H        0.72676207      -1.24774885       2.61459342       0.00000000
H        2.28563363       1.54179964       1.48577596       0.00000000
H        2.85537639       1.41134932      -0.84788951       0.00000000
Si      -2.35108685       1.54755001       1.91004164       0.00000000
Si      -0.16819425      -3.29512494       0.90093001       0.00000000
