10
Lattice="16.290000149 0.0 0.0 0.0 16.290000149 0.0 0.0 0.0 29.1751946751" Properties=species:S:1:pos:R:3:initial_magmoms:R:1 pbc="T T T"
H        1.19431765       0.36694854       0.89270261       0.00000000
Si       0.85398697       1.48651138      -1.63130184       0.00000000
Si      -0.77033782      -2.11512620       1.17888209       0.00000000
Si       0.54385795      -2.38267316      -0.73220986       0.00000000
Si      -2.19413270       1.41863095       1.04394682       0.00000000
H        2.59919984      -1.66382804       1.35495439       0.00000000
Si      -3.41922216      -0.17181063      -0.36962054       0.00000000
H       -1.88712810      -1.57418416      -2.46792972       0.00000000
Si      -0.25487334      -1.20536227       3.27226066       0.00000000
Si       1.27619119       3.29929518      -0.14488402       0.00000000
