10
Lattice="16.290000149 0.0 0.0 0.0 16.290000149 0.0 0.0 0.0 29.1751946751" Properties=species:S:1:pos:R:3:initial_magmoms:R:1 pbc="T T T"
Si      -1.32875902      -1.04946697       1.62374546       0.00000000
Si       1.23126337      -1.43047053      -1.41692250       0.00000000
Si      -1.35439948       1.30691413      -1.42856341       0.00000000
Si       1.42677595       1.27148338       1.40116790       0.00000000
Si      -0.06011010       2.56104866       2.66468723       0.00000000
Si       0.09211995      -2.66008535       2.57088898       0.00000000
Si       2.72161659       2.63127485      -0.03973662       0.00000000
Si      -1.49972257       0.76015657       3.39888100       0.00000000
H       -2.84677527       1.32796081       2.13889187       0.00000000
Si       2.61555500      -0.09262494      -2.79445850       0.00000000
