10
Lattice="16.290000149 0.0 0.0 0.0 16.290000149 0.0 0.0 0.0 29.1751946751" Properties=species:S:1:pos:R:3:initial_magmoms:R:1 pbc="T T T"
Si      -1.38823381      -1.36314721       1.31119160       0.00000000
Si      -1.36959805       1.33931494      -1.35635480       0.00000000
Si       1.35081568      -1.36831114      -1.35530449       0.00000000
Si       1.37507149       1.36879984       1.33817865       0.00000000
Si       2.77211820      -0.08423559       2.52733041       0.00000000
Si       0.00684180       2.69405651      -2.69021553       0.00000000
Si      -2.68812695       2.70861977       0.02794984       0.00000000
Si      -0.06924879      -2.80557786       2.58734379       0.00000000
Si      -2.67941180       0.00640197       2.72157886       0.00000000
Si       2.72701118      -0.02902878      -2.69870551       0.00000000
