10
Lattice="16.290000149 0.0 0.0 0.0 16.290000149 0.0 0.0 0.0 29.1751946751" Properties=species:S:1:pos:R:3:initial_magmoms:R:1 pbc="T T T"
Si       1.34651186      -1.36043493       1.35571295       0.00000000
Si      -1.31418420      -1.38382737      -1.36402788       0.00000000
Si      -1.38074367       1.34818485       1.34025009       0.00000000
Si       1.32399908       1.38376221      -1.36230654       0.00000000
Si      -2.63101747       0.05148617      -2.63982996       0.00000000
Si       2.68004386      -0.01162780      -2.65138334       0.00000000
Si      -0.01027573       2.71775032       2.66407455       0.00000000
Si       2.66375386      -2.73127102      -0.03352230       0.00000000
Si       2.70390871       0.00209978       2.70620353       0.00000000
Si      -0.03002736      -2.70874195       2.70538663       0.00000000
