10
Lattice="16.290000149 0.0 0.0 0.0 16.290000149 0.0 0.0 0.0 29.1751946751" Properties=species:S:1:pos:R:3:initial_magmoms:R:1 pbc="T T T"
Si       1.26102520      -0.24505047      -1.93647437       0.00000000
Si      -0.33824556       2.11983401       0.93354788       0.00000000
Si       1.22578993      -1.32046741       1.51562219       0.00000000
Si      -2.06177645      -0.69304177      -0.90463526       0.00000000
H        2.57494403      -0.69879214      -1.32890094       0.00000000
H       -2.51923223       0.28961991       1.72121979       0.00000000
H        0.36251766      -3.06905232      -0.24130804       0.00000000
H       -1.24701580       2.04705029       2.14989092       0.00000000
H       -3.19279116      -0.62946190       0.10062525       0.00000000
Si       0.28931040      -2.24059178      -2.81467691       0.00000000
