10
Lattice="16.290000149 0.0 0.0 0.0 16.290000149 0.0 0.0 0.0 29.1751946751" Properties=species:S:1:pos:R:3:initial_magmoms:R:1 pbc="T T T"
Si      -1.23786082       1.36404316       1.41896477       0.00000000
Si       1.32452362      -1.37327959       1.33450258       0.00000000
Si       1.34996808       1.41002983      -1.30459801       0.00000000
Si      -1.38675142      -1.35624025      -1.33380237       0.00000000
H       -1.88371046       0.53579439       2.49456667       0.00000000
Si       2.61889934       0.03078810       2.65427169       0.00000000
Si      -2.81843067       2.45345321       0.10062525       0.00000000
Si      -0.08907372       2.75812509      -2.59253697       0.00000000
Si       2.68764640       0.04647537      -2.67769937       0.00000000
Si      -0.00447975      -2.70339068      -2.66740052       0.00000000
