10
Lattice="16.290000149 0.0 0.0 0.0 16.290000149 0.0 0.0 0.0 29.1751946751" Properties=species:S:1:pos:R:3:initial_magmoms:R:1 pbc="T T T"
Si       0.90170038      -0.74186290      -0.97748572       0.00000000
Si      -1.07869123       1.71323561       0.78940666       0.00000000
Si      -1.91335826      -0.28342971       1.88076142       0.00000000
Si      -1.32743953       2.22558869      -1.50908694       0.00000000
Si       2.30403367      -1.91241344       0.48308287       0.00000000
Si      -0.69072859      -1.87108571      -2.31840684       0.00000000
Si       2.05337081       0.89744869      -2.15925616       0.00000000
Si       0.86315824       2.56585421       1.85091228       0.00000000
Si      -0.48599586      -1.65068201       3.21459880       0.00000000
Si      -3.22199913      -1.72911836       0.51088683       0.00000000
