10
Lattice="10.86 0.0 0.0 0.0 10.86 0.0 0.0 0.0 10.86" Properties=species:S:1:pos:R:3:initial_magmoms:R:1 pbc="T T T"
Si       1.35750000       1.35750000       1.35750000       0.00000000
Si      -1.35750000      -1.35750000       1.35750000       0.00000000
Si       1.35750000      -1.35750000      -1.35750000       0.00000000
Si      -1.35750000       1.35750000      -1.35750000       0.00000000
Si      -0.07655214      -2.64834132      -2.57395032       0.00000000
Si      -2.59992744       0.01802760      -2.63788314       0.00000000
Si       2.79975144       0.03759732       2.42595024       0.00000000
Si      -2.61022272       0.01643118       2.71072116       0.00000000
Si       0.28860450       2.52289746       2.81309838       0.00000000
Si       2.59931928       0.05857884      -2.82476202       0.00000000
