10
Lattice="16.28999089631971 0.0 0.0 0.0 16.28999089631971 0.0 0.0 0.0 34.31052061344573" Properties=species:S:1:pos:R:3:initial_magmoms:R:1 pbc="T T T"
Si      -1.37178905      -1.34437365       1.38687662       0.00000000
Si       1.34350146       1.37340013       1.38842060       0.00000000
Si      -1.35606920       1.42554604      -1.34230723       0.00000000
Si       1.29845961      -1.60960743      -1.52015591       0.00000000
Si       2.69035866      -2.72043882       0.02100491       0.00000000
Si       2.70340695       2.70811313       0.01279097       0.00000000
Si      -2.72431421      -2.70289449       0.01850367       0.00000000
Si       2.69702127       0.01722596       2.74749539       0.00000000
Si      -0.01729998      -2.69787717       2.74746108       0.00000000
Si      -2.74358528       2.73147299       0.02838511       0.00000000
