10
Lattice="16.28999089631971 0.0 0.0 0.0 16.28999089631971 0.0 0.0 0.0 34.31052061344573" Properties=species:S:1:pos:R:3:initial_magmoms:R:1 pbc="T T T"
Si      -1.31623200       1.37474568       1.34408452       0.00000000
Si       1.40760261      -1.36868580       1.32270562       0.00000000
Si       1.17491625       1.59874947      -1.31988564       0.00000000
Si      -1.76360427      -0.77312340      -1.48207606       0.00000000
Si      -2.53514591       2.60297910      -0.26073952       0.00000000
Si      -2.65187354      -2.65125289      -0.03239258       0.00000000
Si      -2.67176851       0.01552437       2.69953612       0.00000000
Si      -0.70309269       3.38009355      -1.58686045       0.00000000
Si       0.04769712      -2.70339880       2.69833525       0.00000000
Si       0.04499298       2.72741841       2.69998215       0.00000000
