10
Lattice="16.28999089631971 0.0 0.0 0.0 16.28999089631971 0.0 0.0 0.0 34.31052061344573" Properties=species:S:1:pos:R:3:initial_magmoms:R:1 pbc="T T T"
Si       0.11466531      -0.69734232      -2.20551581       0.00000000
Si      -0.68445204       2.23371738       0.13415421       0.00000000
Si      -1.81357289      -1.26016182       0.95297524       0.00000000
Si       2.34044946      -0.47825811       0.37587196       0.00000000
Si      -1.44781936       2.06860194       2.27540638       0.00000000
Si      -0.41412927      -2.92441338      -1.68986271       0.00000000
Si       1.27954692       3.47236078       0.02542411       0.00000000
Si      -0.71249691      -2.97597123       2.09064412       0.00000000
Si       3.44785995       0.78086115      -1.38854755       0.00000000
Si       2.67291207      -2.70324405      -0.30299638       0.00000000
