10
Lattice="16.28999089631971 0.0 0.0 0.0 16.28999089631971 0.0 0.0 0.0 34.31052061344573" Properties=species:S:1:pos:R:3:initial_magmoms:R:1 pbc="T T T"
Si       1.12901266       1.10671002      -1.73072656       0.00000000
Si      -0.90889257       1.98056168       0.87069857       0.00000000
Si       1.67842549      -1.43203761       0.83480974       0.00000000
Si      -1.99041550      -1.33001334      -0.85707728       0.00000000
Si      -2.23323424       0.59543208       2.45458086       0.00000000
Si       1.29145654      -2.90864466      -1.26722548       0.00000000
Si       0.15221865      -2.52841977       2.37337810       0.00000000
Si      -0.68617878       1.20542742      -3.23363113       0.00000000
Si       0.32341677       3.35741365      -1.35711909       0.00000000
Si      -1.09927105      -3.49674624      -0.75119496       0.00000000
