10
Lattice="16.28999089631971 0.0 0.0 0.0 16.28999089631971 0.0 0.0 0.0 34.31052061344573" Properties=species:S:1:pos:R:3:initial_magmoms:R:1 pbc="T T T"
Si      -1.60480935       1.04194913       1.31604937       0.00000000
Si      -1.35578412      -1.34288148      -1.37417143       0.00000000
Si       1.35332433       1.37835392      -1.36748087       0.00000000
Si       1.20223458      -1.40001051       1.53896495       0.00000000
Si       2.31695928       0.18927677       2.96141131       0.00000000
Si      -0.54061623      -2.35149312       2.91821434       0.00000000
Si       2.69457777      -2.70127200       0.02103236       0.00000000
Si      -2.70218520      -2.71083423      -0.02473790       0.00000000
Si      -0.00389331      -2.69819319      -2.72943775       0.00000000
Si       0.85706577       2.23709756       3.00042239       0.00000000
