10
Lattice="16.28999089631971 0.0 0.0 0.0 16.28999089631971 0.0 0.0 0.0 34.31052061344573" Properties=species:S:1:pos:R:3:initial_magmoms:R:1 pbc="T T T"
Si      -1.85345991       1.42012962       0.12784107       0.00000000
Si       1.73442888       0.92984949      -1.28064090       0.00000000
Si      -0.10715562      -0.16791732       2.35524700       0.00000000
Si      -0.55521207      -2.27976106      -0.30258465       0.00000000
Si      -3.10941891       0.33225084      -1.52596126       0.00000000
Si      -2.41943967       0.44290881       2.49694953       0.00000000
Si      -2.39604723      -1.92084187      -1.71521819       0.00000000
Si       3.41527995       1.13997420       0.72041840       0.00000000
Si       0.59860863      -2.41680395       2.77911941       0.00000000
Si       2.01451914      -0.29405079      -3.28386176       0.00000000
