10
Lattice="16.28999089631971 0.0 0.0 0.0 16.28999089631971 0.0 0.0 0.0 34.31052061344573" Properties=species:S:1:pos:R:3:initial_magmoms:R:1 pbc="T T T"
Si       0.65277288      -1.82482209      -1.32335752       0.00000000
Si       0.78820794      -0.00824274       2.25993232       0.00000000
Si      -0.66428991       1.73942991      -1.50671304       0.00000000
Si      -2.18588994      -0.88526376       0.43934646       0.00000000
Si       2.77808031       1.31313690       0.16496508       0.00000000
Si      -0.49767579      -1.00681974      -3.21716207       0.00000000
Si      -2.51219493       0.02384856       2.54573912       0.00000000
Si       0.25951599       3.64400784      -0.66713414       0.00000000
Si       0.32519727       1.15823529      -3.51974672       0.00000000
Si       2.64038094      -1.44199080       2.19045348       0.00000000
