10
Lattice="16.28999089631971 0.0 0.0 0.0 16.28999089631971 0.0 0.0 0.0 34.31052061344573" Properties=species:S:1:pos:R:3:initial_magmoms:R:1 pbc="T T T"
Si       1.85217300      -1.43374806      -0.06947884       0.00000000
Si      -0.78820794       0.00824274      -2.25993232       0.00000000
Si      -1.54500876      -0.93587679       1.57053065       0.00000000
Si       0.33808266       2.28542184       0.64603315       0.00000000
Si       1.98987237       1.32137964      -2.09496725       0.00000000
Si      -3.30040287       0.03209130       0.28580680       0.00000000
Si      -2.97409788      -0.87702102      -1.82058586       0.00000000
Si       2.43429615       2.78306505      -0.29977119       0.00000000
Si       3.04064253      -0.74279142      -1.99587841       0.00000000
Si      -1.18439703       3.47648148      -0.63440188       0.00000000
