10
Lattice="16.28999089631971 0.0 0.0 0.0 16.28999089631971 0.0 0.0 0.0 34.31052061344573" Properties=species:S:1:pos:R:3:initial_magmoms:R:1 pbc="T T T"
Si       0.75305412       1.80926514      -1.23315511       0.00000000
Si       1.48970421      -1.90063575       0.14753532       0.00000000
Si      -1.98493650      -1.04962986      -1.10991165       0.00000000
Si       1.80882531       1.26034101       1.73305968       0.00000000
Si       2.07990720       0.39618909      -2.62077627       0.00000000
Si      -0.64663155      -2.34791028      -2.61261036       0.00000000
Si       1.25343405      -2.48634270       2.43666591       0.00000000
Si       3.30760305      -1.10685663      -1.28396902       0.00000000
Si       0.71648307      -3.71138328      -1.19362937       0.00000000
Si      -0.65443446       3.10870215      -2.60413566       0.00000000
