10
Lattice="16.28999089631971 0.0 0.0 0.0 16.28999089631971 0.0 0.0 0.0 34.31052061344573" Properties=species:S:1:pos:R:3:initial_magmoms:R:1 pbc="T T T"
Si      -0.03912044      -2.31501263       0.03413899       0.00000000
Si       1.92591946       0.48925386       1.23143958       0.00000000
Si       0.11550425       0.72638739      -2.23529736       0.00000000
Si      -1.84432678       0.99375516       1.15763761       0.00000000
Si       0.69838814       3.47358186      -0.09236397       0.00000000
Si      -0.90665809      -2.72239295       2.18365999       0.00000000
Si      -1.55436478       3.28966776       0.55751196       0.00000000
Si       1.51409197       2.61721656      -2.12066584       0.00000000
Si       3.72782152      -0.07227873      -0.14636876       0.00000000
Si      -1.63361563      -3.02658589      -1.50396820       0.00000000
