10
Lattice="16.28999089631971 0.0 0.0 0.0 16.28999089631971 0.0 0.0 0.0 34.31052061344573" Properties=species:S:1:pos:R:3:initial_magmoms:R:1 pbc="T T T"
Si      -2.09621349      -0.49764321       0.94580434       0.00000000
Si      -0.44442378      -1.46168541      -1.79519606       0.00000000
Si       0.26471250       2.29229622      -0.57312326       0.00000000
Si       1.51982442      -0.45033705       1.81413548       0.00000000
Si       2.64968253       2.30477436      -0.65728701       0.00000000
Si      -3.61869318       0.69341643      -0.33463069       0.00000000
Si      -2.43429615      -2.78306505       0.29977119       0.00000000
Si       0.43284159      -0.46244052      -3.67949660       0.00000000
Si       0.01150074       0.14278185       3.78915308       0.00000000
Si      -2.23487397       0.61533846       3.03641415       0.00000000
