10
Lattice="16.28999089631971 0.0 0.0 0.0 16.28999089631971 0.0 0.0 0.0 34.31052061344573" Properties=species:S:1:pos:R:3:initial_magmoms:R:1 pbc="T T T"
Si      -1.52247969       1.19105964      -1.28043503       0.00000000
Si       2.09621349       0.49764321      -0.94580434       0.00000000
Si      -0.13866048       1.11298167       2.09060981       0.00000000
Si      -0.33808266      -2.28542184      -0.64603315       0.00000000
Si       1.65178971      -0.96404220      -2.74100040       0.00000000
Si       2.10771423       0.64042506       2.84334874       0.00000000
Si      -3.56824305       0.10700901      -0.72065858       0.00000000
Si      -0.51421014       3.41791893       1.35286458       0.00000000
Si       3.61603791       0.04730616       0.86833114       0.00000000
Si      -1.88309142      -3.22129863       0.92449749       0.00000000
