10
Lattice="16.28999089631971 0.0 0.0 0.0 16.28999089631971 0.0 0.0 0.0 34.31052061344573" Properties=species:S:1:pos:R:3:initial_magmoms:R:1 pbc="T T T"
Si      -1.79274708       1.59456294      -0.36568173       0.00000000
Si       1.73416824       0.85871106      -1.53944530       0.00000000
Si       1.62297270       0.08555508       1.87959999       0.00000000
Si      -1.12265793      -2.20457457      -0.59106767       0.00000000
Si      -0.80710434      -2.57935860       1.79234829       0.00000000
Si      -0.09922239      -0.74575620       3.24589856       0.00000000
Si      -1.40577813       3.07116999       1.73635349       0.00000000
Si      -3.03505995       0.66406185      -2.51684965       0.00000000
Si       3.98054295       0.38615445      -0.78670637       0.00000000
Si       1.87282872      -0.25427061      -3.63005511       0.00000000
