10
Lattice="16.28999089631971 0.0 0.0 0.0 16.28999089631971 0.0 0.0 0.0 34.31052061344573" Properties=species:S:1:pos:R:3:initial_magmoms:R:1 pbc="T T T"
Si       0.03912044       2.31501263      -0.03413899       0.00000000
Si      -1.59449519      -0.71157326      -1.53810719       0.00000000
Si      -0.86753765      -0.40738032       2.14952101       0.00000000
Si       1.74914852      -1.49054854      -0.55720317       0.00000000
Si      -1.92638765      -2.92514547      -0.72017823       0.00000000
Si       0.37789216      -3.49071798      -0.72117324       0.00000000
Si       1.96503989       2.80426649       1.19730060       0.00000000
Si       0.69460397      -1.89908724       3.12781743       0.00000000
Si      -3.43549325       0.77572165      -1.36027566       0.00000000
Si       0.15462468       3.04140001      -2.26943634       0.00000000
