10
Lattice="16.28999089631971 0.0 0.0 0.0 16.28999089631971 0.0 0.0 0.0 34.31052061344573" Properties=species:S:1:pos:R:3:initial_magmoms:R:1 pbc="T T T"
Si      -1.35189081       1.35531171       1.35526632       0.00000000
Si      -1.35545832      -1.35697329      -1.35653581       0.00000000
Si       1.35856971       1.35740967      -1.35598684       0.00000000
Si       1.35654975      -1.35399222       1.36181963       0.00000000
Si      -2.69829189      -0.01264104       2.70469985       0.00000000
Si      -2.71275741      -0.00079821      -2.71362059       0.00000000
Si      -2.71410948      -2.71355562       0.00092638       0.00000000
Si       0.00389331       2.69819319       2.72943775       0.00000000
Si       0.00216657       2.71440337      -2.71372352       0.00000000
Si      -2.71264338       2.71549643       0.00109794       0.00000000
