10
Lattice="16.28999089631971 0.0 0.0 0.0 16.28999089631971 0.0 0.0 0.0 34.31052061344573" Properties=species:S:1:pos:R:3:initial_magmoms:R:1 pbc="T T T"
Si       1.35189081      -1.35531171      -1.35526632       0.00000000
Si      -1.34640108      -1.36795275       1.34943353       0.00000000
Si       1.35578412       1.34288148       1.37417143       0.00000000
Si      -1.36075257       1.36018472      -1.35416838       0.00000000
Si      -0.24902523       2.38483061       2.69022080       0.00000000
Si      -2.65065993      -0.03051117       2.70295001       0.00000000
Si       2.70844056      -2.70930393       0.00655331       0.00000000
Si       2.71046052       0.00209796      -2.71125316       0.00000000
Si      -0.00356751      -2.71228500      -2.71180213       0.00000000
Si      -0.00346977       2.71662533      -2.71204231       0.00000000
