10
Lattice="16.28999089631971 0.0 0.0 0.0 16.28999089631971 0.0 0.0 0.0 34.31052061344573" Properties=species:S:1:pos:R:3:initial_magmoms:R:1 pbc="T T T"
Si      -1.20223458       1.40001051      -1.53896495       0.00000000
Si       1.11472470       1.58928728       1.42244636       0.00000000
Si      -1.74285081      -0.95148261       1.37924939       0.00000000
Si       1.49234319      -1.30126149      -1.51793259       0.00000000
Si      -2.80704393       2.44195964      -0.22291558       0.00000000
Si      -2.73259863      -2.63788857       0.01506233       0.00000000
Si       2.75315661       2.63748851      -0.11291599       0.00000000
Si      -2.55801870       0.05712903      -2.91313638       0.00000000
Si       2.77852014      -2.71645524      -0.05812205       0.00000000
Si      -3.58420725       0.62862688       1.46279555       0.00000000
