10
Lattice="16.28999089631971 0.0 0.0 0.0 16.28999089631971 0.0 0.0 0.0 34.31052061344573" Properties=species:S:1:pos:R:3:initial_magmoms:R:1 pbc="T T T"
Si       0.25114293       2.06662319      -1.09879504       0.00000000
Si      -0.50383341      -0.03161565       2.30096773       0.00000000
Si       2.34619983      -0.27080351      -0.06704279       0.00000000
Si       0.27391635      -2.30451227      -0.63567137       0.00000000
Si      -0.15687270      -1.40170418      -2.78069770       0.00000000
Si       2.21649885      -2.48103071       0.64335693       0.00000000
Si      -3.11467148       0.94606993      -0.96824343       0.00000000
Si      -1.87508977      -2.03178509       2.13699766       0.00000000
Si      -2.43733424      -0.86234228      -2.37233365       0.00000000
Si       1.68544485       3.20834042       0.33627760       0.00000000
