10
Lattice="16.28999089631971 0.0 0.0 0.0 16.28999089631971 0.0 0.0 0.0 34.31052061344573" Properties=species:S:1:pos:R:3:initial_magmoms:R:1 pbc="T T T"
Si       2.06280270      -0.16552269       1.13451231       0.00000000
Si       0.11018556       2.17582991      -1.02022390       0.00000000
Si      -1.24672257       0.06450840       2.08759048       0.00000000
Si       0.14810868      -1.35395964      -2.23481701       0.00000000
Si      -2.21698755       2.63395358      -1.01061695       0.00000000
Si      -0.32746158       1.89175511       3.16271125       0.00000000
Si       1.77440454       0.95409294       3.15228084       0.00000000
Si       2.33551359      -2.41614909       1.68200559       0.00000000
Si      -1.37642355      -2.14571880       2.79799021       0.00000000
Si       2.54744649      -1.75769100      -2.30302636       0.00000000
