10
Lattice="16.28999089631971 0.0 0.0 0.0 16.28999089631971 0.0 0.0 0.0 34.31052061344573" Properties=species:S:1:pos:R:3:initial_magmoms:R:1 pbc="T T T"
Si       1.35651717       1.35925389       1.35533494       0.00000000
Si       1.35695700      -1.35755973      -1.35770237       0.00000000
Si      -1.35770634       1.35770634      -1.35790823       0.00000000
Si      -1.35871632      -1.35880591       1.35821703       0.00000000
Si       0.00392589       2.71251306       2.70970919       0.00000000
Si       2.71163340       0.00195480       2.71646837       0.00000000
Si      -0.00135207      -2.71410138      -2.71430680       0.00000000
Si      -0.00027693       2.71586880      -2.71283145       0.00000000
Si       2.71425609      -2.71480902      -0.00024017       0.00000000
Si       2.71459818       2.71469592      -0.00034311       0.00000000
