10
Lattice="16.28999089631971 0.0 0.0 0.0 16.28999089631971 0.0 0.0 0.0 34.31052061344573" Properties=species:S:1:pos:R:3:initial_magmoms:R:1 pbc="T T T"
Si       1.69121151       1.06442118       1.26214752       0.00000000
Si       1.46994444      -1.22571173      -1.42337274       0.00000000
Si      -1.23369057       1.50294798      -1.42042204       0.00000000
Si      -1.63843191      -1.04820123       1.53536234       0.00000000
Si      -3.09832542       0.99961956       1.57437343       0.00000000
Si       0.34963227       0.95001651       3.61766900       0.00000000
Si       0.11969892      -2.57971194      -2.79226035       0.00000000
Si      -2.75315661      -2.63748851       0.11291599       0.00000000
Si      -2.60206686       0.14087592      -2.79352984       0.00000000
Si      -2.60951139       2.83470435      -0.00295071       0.00000000
