10
Lattice="16.28999089631971 0.0 0.0 0.0 16.28999089631971 0.0 0.0 0.0 34.31052061344573" Properties=species:S:1:pos:R:3:initial_magmoms:R:1 pbc="T T T"
Si       1.78958682       1.46184505       0.32155838       0.00000000
Si       0.54837027      -0.71985477      -2.17748410       0.00000000
Si      -1.82855250       1.46754655      -0.27976814       0.00000000
Si      -0.69340014      -1.98188442       1.15715726       0.00000000
Si      -3.44460195      -0.15402847      -0.17868929       0.00000000
Si      -1.41002982      -0.08726227      -3.30448240       0.00000000
Si       3.63058488      -0.02544987       0.14372685       0.00000000
Si       0.65195838      -3.05808327      -2.00596571       0.00000000
Si      -2.93003343      -1.52446122       1.72067357       0.00000000
Si       1.85947092       2.78662930      -1.71247335       0.00000000
