10
Lattice="16.28999089631971 0.0 0.0 0.0 16.28999089631971 0.0 0.0 0.0 34.31052061344573" Properties=species:S:1:pos:R:3:initial_magmoms:R:1 pbc="T T T"
Si       0.38105568       2.32371474       0.05990620       0.00000000
Si      -1.73004687      -0.39233488      -1.57104531       0.00000000
Si       2.02075821      -1.03906972      -0.69667551       0.00000000
Si      -0.13962159      -0.76065829       2.27396533       0.00000000
Si       2.66963778       2.11508871       0.58643575       0.00000000
Si      -0.70706745      -3.05942068       1.99948102       0.00000000
Si       3.44955411       0.75380183      -1.24444328       0.00000000
Si      -1.18742697       3.07567743       1.77714872       0.00000000
Si      -2.58818778       1.64165244      -2.22713145       0.00000000
Si      -3.47512941      -1.43511220      -0.47811737       0.00000000
