10
Lattice="16.28999089631971 0.0 0.0 0.0 16.28999089631971 0.0 0.0 0.0 34.31052061344573" Properties=species:S:1:pos:R:3:initial_magmoms:R:1 pbc="T T T"
Si      -0.85085928      -2.07479377       0.70892437       0.00000000
Si       2.34387036       0.30138129       0.18489950       0.00000000
Si      -1.40297625       0.63568467      -1.90447513       0.00000000
Si      -2.28597570      -0.58476213       2.04171729       0.00000000
Si      -0.35517087      -3.20065105      -1.40765852       0.00000000
Si       0.16550640      -0.11627802      -3.62171765       0.00000000
Si       3.20502492      -1.47367485      -1.17201373       0.00000000
Si      -3.49094700       1.05265980       0.72649137       0.00000000
Si      -0.96449832       0.59772897       3.59837074       0.00000000
Si       2.45408850      -0.32490405      -3.09518810       0.00000000
