10
Lattice="16.28999089631971 0.0 0.0 0.0 16.28999089631971 0.0 0.0 0.0 34.31052061344573" Properties=species:S:1:pos:R:3:initial_magmoms:R:1 pbc="T T T"
Si       1.35288450       1.34640108      -1.38127371       0.00000000
Si      -1.36837629      -1.36207206      -1.37310780       0.00000000
Si      -1.37582082       1.33175637       1.41747133       0.00000000
Si       1.23369057      -1.50294798       1.42042204       0.00000000
Si      -1.86463485      -0.50332842       2.99479547       0.00000000
Si       2.70153360       2.67791310      -0.00422020       0.00000000
Si       2.70363501      -2.72865971      -0.00295071       0.00000000
Si      -2.73893544       2.69522937      -0.00150966       0.00000000
Si      -0.00861741       2.70495450      -2.73403536       0.00000000
Si       2.70547578      -0.00685809      -2.73564796       0.00000000
