10
Lattice="16.28999089631971 0.0 0.0 0.0 16.28999089631971 0.0 0.0 0.0 34.31052061344573" Properties=species:S:1:pos:R:3:initial_magmoms:R:1 pbc="T T T"
Si      -1.22769585       1.50304572      -1.33680725       0.00000000
Si       1.48623444      -1.25836992      -1.33135188       0.00000000
Si       1.90303038       0.87037470       1.14501133       0.00000000
Si      -1.81789884      -0.79377912       1.43150434       0.00000000
Si       0.86630220       1.21753089       3.28118554       0.00000000
Si      -2.59111998      -2.60452665       0.09033965       0.00000000
Si      -3.30760305       1.10685663       1.28396902       0.00000000
Si      -2.58334965       0.12663846      -2.70116587       0.00000000
Si       0.13758534      -2.58988194      -2.70840539       0.00000000
Si      -2.55454893       2.91612177       0.05081391       0.00000000
