10
Lattice="16.28999089631971 0.0 0.0 0.0 16.28999089631971 0.0 0.0 0.0 34.31052061344573" Properties=species:S:1:pos:R:3:initial_magmoms:R:1 pbc="T T T"
Si      -1.03630464      -2.03046705       0.37844525       0.00000000
Si      -1.29088476       1.75148451       1.11907257       0.00000000
Si       0.30527460      -1.91606238      -1.97707623       0.00000000
Si       2.33445474       1.63773144      -1.88049206       0.00000000
Si       1.44673119      -0.17793567      -3.19997249       0.00000000
Si      -3.32376273      -1.30512222       0.28618421       0.00000000
Si       2.13038991      -2.83509531      -0.74738649       0.00000000
Si      -3.45849732       1.07926137       0.38812083       0.00000000
Si      -0.68199714      -0.84765015       3.52382968       0.00000000
Si      -0.53802612       3.67627833      -0.05132857       0.00000000
