10
Lattice="16.28999089631971 0.0 0.0 0.0 16.28999089631971 0.0 0.0 0.0 34.31052061344573" Properties=species:S:1:pos:R:3:initial_magmoms:R:1 pbc="T T T"
Si       1.23721100       1.19551658       1.57457384       0.00000000
Si       0.90889257      -1.98056168      -0.87069857       0.00000000
Si      -1.32434167      -1.38512960       1.58388229       0.00000000
Si       1.23230934       1.37685198      -2.22781766       0.00000000
Si       2.03790523      -0.87385166      -2.60142513       0.00000000
Si      -2.58039841       2.29198671      -0.00082345       0.00000000
Si       2.12548027       3.07364607       0.12489036       0.00000000
Si      -2.60804254      -2.79822194       0.11699894       0.00000000
Si      -0.15030508       2.50144353       2.94526618       0.00000000
Si      -1.08152293      -3.31057502      -1.72777585       0.00000000
