10
Lattice="16.28999089631971 0.0 0.0 0.0 16.28999089631971 0.0 0.0 0.0 34.31052061344573" Properties=species:S:1:pos:R:3:initial_magmoms:R:1 pbc="T T T"
Si      -0.92763405      -0.62011143       2.08261545       0.00000000
Si      -1.16049960      -0.67574178      -1.95103453       0.00000000
Si      -0.13473459       2.38438359       0.10193661       0.00000000
Si       2.28745809      -0.72534483       0.09226104       0.00000000
Si       0.29939391      -2.72356257      -1.99004562       0.00000000
Si       3.32376273       1.30512222      -0.28618421       0.00000000
Si       0.98720658      -1.26473931       3.26982875       0.00000000
Si       0.10153557       2.97009054      -2.18719398       0.00000000
Si      -2.42080803      -2.37027645       1.48770501       0.00000000
Si       2.03287797       3.05660673       0.83288835       0.00000000
