10
Lattice="16.28999089631971 0.0 0.0 0.0 16.28999089631971 0.0 0.0 0.0 34.31052061344573" Properties=species:S:1:pos:R:3:initial_magmoms:R:1 pbc="T T T"
Si      -0.45903591      -0.92753631       2.07842957       0.00000000
Si      -0.77395419       2.22759234       0.11246995       0.00000000
Si       2.31585156       0.24360066      -0.45361965       0.00000000
Si      -1.29440340      -0.86265324      -1.80404818       0.00000000
Si      -0.04307076       2.63718810      -2.07046952       0.00000000
Si      -1.26732942       1.00235628      -3.25010019       0.00000000
Si       2.21975685       2.03898672      -2.04617766       0.00000000
Si      -2.80686474      -0.73788813       2.29722788       0.00000000
Si      -3.13444035       2.24516925       0.10083868       0.00000000
Si       3.39330474       1.00861164       1.59146008       0.00000000
