10
Lattice="16.28999089631971 0.0 0.0 0.0 16.28999089631971 0.0 0.0 0.0 34.31052061344573" Properties=species:S:1:pos:R:3:initial_magmoms:R:1 pbc="T T T"
Si       1.35804843       1.35632169      -1.35482028       0.00000000
Si      -1.35749457       1.35628911       1.35674167       0.00000000
Si       1.35769005      -1.35799956       1.35701616       0.00000000
Si      -1.35806472      -1.35811359      -1.36024135       0.00000000
Si       2.70443322       0.00847080      -2.70799366       0.00000000
Si       2.71414206      -0.00112401       2.71355197       0.00000000
Si       0.00034209       2.71259451       2.71540474       0.00000000
Si       2.71391400       2.71427238       0.00020586       0.00000000
Si       0.00148239       2.71129131      -2.71698302       0.00000000
Si      -2.71472850      -0.00107514       2.71475284       0.00000000
