10
Lattice="16.28999089631971 0.0 0.0 0.0 16.28999089631971 0.0 0.0 0.0 34.31052061344573" Properties=species:S:1:pos:R:3:initial_magmoms:R:1 pbc="T T T"
Si       1.35645201       1.35687555       1.35653581       0.00000000
Si       1.35694071      -1.35764118      -1.35684461       0.00000000
Si      -1.35769005       1.35799956      -1.35701616       0.00000000
Si      -1.35755973      -1.35913986       1.35742789       0.00000000
Si       0.00298107       2.71049310       2.71403232       0.00000000
Si       0.00035838       2.71432125      -2.71183644       0.00000000
Si      -0.00026064      -2.71433754      -2.71235110       0.00000000
Si       0.00394218      -2.71769328       2.71018954       0.00000000
Si       2.71466334       2.71401174       0.00006862       0.00000000
Si      -2.71518462       2.71428867      -0.00027448       0.00000000
