10
Lattice="16.28999089631971 0.0 0.0 0.0 16.28999089631971 0.0 0.0 0.0 34.31052061344573" Properties=species:S:1:pos:R:3:initial_magmoms:R:1 pbc="T T T"
Si       1.35347094      -1.35361755      -1.35749651       0.00000000
Si      -1.36432008      -1.33525872       1.36775536       0.00000000
Si      -1.36032903       1.36010097      -1.35564374       0.00000000
Si       1.33812576       1.36423863       1.37695058       0.00000000
Si       2.72064177      -0.03735297       2.69845533       0.00000000
Si       2.71186146      -2.70757719       0.00336243       0.00000000
Si      -0.00298107      -2.71049310      -2.71403232       0.00000000
Si       2.71168227       0.00351864      -2.71396370       0.00000000
Si      -2.71997388      -2.71166598       0.00339674       0.00000000
Si       2.71205694       2.71994130       0.00548969       0.00000000
