10
Lattice="16.28999089631971 0.0 0.0 0.0 16.28999089631971 0.0 0.0 0.0 34.31052061344573" Properties=species:S:1:pos:R:3:initial_magmoms:R:1 pbc="T T T"
Si       1.69437829       1.61552328       0.08567342       0.00000000
Si      -1.82687530       0.02021915      -1.47734322       0.00000000
Si       0.80559589      -2.25070363      -0.37360747       0.00000000
Si      -1.23230934      -1.37685198       2.22781766       0.00000000
Si      -1.00959556      -2.15198623      -1.87651204       0.00000000
Si       0.89317093       1.69679409       2.35270802       0.00000000
Si      -0.32341677      -3.35741365       1.35711909       0.00000000
Si       0.00490166      -0.18133539       3.80239150       0.00000000
Si      -1.26213030       1.22472618      -3.43139708       0.00000000
Si       2.26035805       2.59274409      -2.28343504       0.00000000
