10
Lattice="16.28999089631971 0.0 0.0 0.0 16.28999089631971 0.0 0.0 0.0 34.31052061344573" Properties=species:S:1:pos:R:3:initial_magmoms:R:1 pbc="T T T"
Si      -2.26282761       0.59820138      -0.02429186       0.00000000
Si       0.28222425      -1.12928796      -2.08621806       0.00000000
Si       0.09609471      -1.79538606       1.59255801       0.00000000
Si       1.26480447       2.01486123       0.33799313       0.00000000
Si       1.03508289       0.79550586      -3.25661919       0.00000000
Si      -2.21975685      -2.03898672       2.04617766       0.00000000
Si      -2.99371104       0.18860562       2.15864761       0.00000000
Si      -3.48708627      -1.03663044      -1.20392253       0.00000000
Si      -2.61356760       2.46252672      -1.34487023       0.00000000
Si      -1.88538831      -1.80151110      -2.81716980       0.00000000
