10
Lattice="16.28999089631971 0.0 0.0 0.0 16.28999089631971 0.0 0.0 0.0 34.31052061344573" Properties=species:S:1:pos:R:3:initial_magmoms:R:1 pbc="T T T"
Si       0.70781679       1.54676808      -1.58634781       0.00000000
Si      -2.36599218       0.16402401      -0.22631232       0.00000000
Si       1.01638197       0.95407272       1.98397265       0.00000000
Si       0.83160450      -2.22668010      -0.53610218       0.00000000
Si       2.99854917       1.75681134      -1.11097528       0.00000000
Si       0.11329695      -3.34093239       1.56490372       0.00000000
Si      -3.24325755      -0.83522088       1.65798821       0.00000000
Si       3.03086853       2.06068500       1.24084067       0.00000000
Si      -0.24584868      -2.99169108      -2.58118191       0.00000000
Si      -3.33565443      -1.00769940      -2.01509231       0.00000000
