10
Lattice="16.28999089631971 0.0 0.0 0.0 16.28999089631971 0.0 0.0 0.0 34.31052061344573" Properties=species:S:1:pos:R:3:initial_magmoms:R:1 pbc="T T T"
Si       2.01448656       1.10661228      -0.74313198       0.00000000
Si      -1.01638197      -0.95407272      -1.98397265       0.00000000
Si       1.00066212      -1.67143545       1.45281119       0.00000000
Si      -1.16553321       1.97716617       0.81192461       0.00000000
Si      -0.30856518       0.59269536      -3.57032046       0.00000000
Si       3.66006978       0.22260285       0.65704684       0.00000000
Si       1.98216720       0.80273862      -3.09494793       0.00000000
Si      -0.04673601       3.81125727      -0.15515226       0.00000000
Si      -0.61348140       2.48551191       3.05113337       0.00000000
Si       3.24912195      -2.12678982       0.98385473       0.00000000
