10
Lattice="16.28999089631971 0.0 0.0 0.0 16.28999089631971 0.0 0.0 0.0 34.31052061344573" Properties=species:S:1:pos:R:3:initial_magmoms:R:1 pbc="T T T"
Si      -1.69437829      -1.61552328      -0.08567342       0.00000000
Si       2.31228405      -0.61082613      -0.14170253       0.00000000
Si      -0.80120736       0.08127081       2.26703461       0.00000000
Si       0.56597976       0.97722081      -2.36910846       0.00000000
Si       2.41943967      -0.44290881      -2.49694953       0.00000000
Si      -2.62530780       1.71066177       2.31084917       0.00000000
Si       0.96239691       0.85439421       3.74911066       0.00000000
Si      -0.88878240      -3.86622692      -0.45928089       0.00000000
Si       3.74674887       1.11404052       0.85443537       0.00000000
Si       2.13731316       2.45314368       2.42922503       0.00000000
