10
Lattice="16.28999089631971 0.0 0.0 0.0 16.28999089631971 0.0 0.0 0.0 34.31052061344573" Properties=species:S:1:pos:R:3:initial_magmoms:R:1 pbc="T T T"
Si      -0.58173219       0.77498046       2.10488299       0.00000000
Si      -1.24916607      -1.90433358      -0.51081532       0.00000000
Si       2.31790410      -0.27979704       0.05156874       0.00000000
Si      -0.36979929       1.43343855      -1.88014896       0.00000000
Si       0.85551822      -0.19761399      -3.39005288       0.00000000
Si      -0.85444308       3.02560686       1.55738971       0.00000000
Si      -2.60978832      -0.36191493       2.45467895       0.00000000
Si       0.03440448      -2.42168769      -2.68672113       0.00000000
Si       2.95371909       1.24116768       1.74788183       0.00000000
Si       1.39543398       0.54486792       3.36425136       0.00000000
