10
Lattice="16.28999089631971 0.0 0.0 0.0 16.28999089631971 0.0 0.0 0.0 34.31052061344573" Properties=species:S:1:pos:R:3:initial_magmoms:R:1 pbc="T T T"
Si      -2.31790410       0.27979704      -0.05156874       0.00000000
Si       0.63581499       1.52096472       1.69631309       0.00000000
Si       0.31130190      -2.07220203       1.12047930       0.00000000
Si       0.68975118       0.56079954      -2.25022244       0.00000000
Si      -0.92247012       0.82466496       3.31268262       0.00000000
Si       0.09625761      -1.34399016       3.36987829       0.00000000
Si       2.57196294      -2.48039685       0.64517539       0.00000000
Si       2.79184536      -0.70102386      -2.31537816       0.00000000
Si      -2.89963629       1.05477750       2.05331425       0.00000000
Si      -2.68770339       1.71323559      -1.93171770       0.00000000
