10
Lattice="16.28999089631971 0.0 0.0 0.0 16.28999089631971 0.0 0.0 0.0 34.31052061344573" Properties=species:S:1:pos:R:3:initial_magmoms:R:1 pbc="T T T"
Si      -0.26471250      -2.29229622       0.57312326       0.00000000
Si      -0.84352878       1.27229787       1.83029574       0.00000000
Si       2.38497003       0.01247814      -0.08416375       0.00000000
Si      -1.01605617       1.05120999      -1.88896677       0.00000000
Si      -1.23512409      -0.87259014      -3.24862484       0.00000000
Si      -1.75314609       3.12675147       0.74728356       0.00000000
Si       2.93702184       0.52082388       2.15504500       0.00000000
Si       1.01491587       1.50244299       3.22488195       0.00000000
Si      -3.10845780       1.88522541      -0.84705861       0.00000000
Si       1.25511192      -2.74263327       2.38725874       0.00000000
