10
Lattice="16.28999089631971 0.0 0.0 0.0 16.28999089631971 0.0 0.0 0.0 34.31052061344573" Properties=species:S:1:pos:R:3:initial_magmoms:R:1 pbc="T T T"
Si       1.90021221      -0.74681505       1.18072861       0.00000000
Si       0.33764283       1.59190767      -1.71446336       0.00000000
Si      -1.11858543       1.78621479       1.26122113       0.00000000
Si      -0.87977403      -2.31339177      -0.47221596       0.00000000
Si       0.43284159      -2.16761256       2.62903966       0.00000000
Si      -1.97252352       1.90451181      -2.35812909       0.00000000
Si      -2.42869239       0.46345050       2.67650486       0.00000000
Si      -2.53996938      -0.39425058      -2.63261341       0.00000000
Si       1.04081697       0.27536616      -3.53196128       0.00000000
Si      -3.12873885      -1.81977219      -0.74186249       0.00000000
