10
Lattice="16.28999089631971 0.0 0.0 0.0 16.28999089631971 0.0 0.0 0.0 34.31052061344573" Properties=species:S:1:pos:R:3:initial_magmoms:R:1 pbc="T T T"
Si       1.34780202      -1.29352374       1.46041783       0.00000000
Si      -1.08229131      -1.50298056      -1.48567180       0.00000000
Si       1.79948692       0.90806976      -1.31614342       0.00000000
Si      -1.35285192       1.43824410       1.42506082       0.00000000
Si      -2.58289353      -2.68474024      -0.03974533       0.00000000
Si       2.73531810      -2.59945069       0.08972549       0.00000000
Si       0.83171853       1.76762790      -3.28127959       0.00000000
Si       0.00014661      -2.64790692       2.82553128       0.00000000
Si       2.85204573       2.65478130      -0.13862144       0.00000000
Si      -2.71779102       0.06758721       2.81626743       0.00000000
