10
Lattice="16.28999089631971 0.0 0.0 0.0 16.28999089631971 0.0 0.0 0.0 34.31052061344573" Properties=species:S:1:pos:R:3:initial_magmoms:R:1 pbc="T T T"
Si      -1.69121151      -1.06442118      -1.26214752       0.00000000
Si       1.82511531      -0.91903293       1.22968975       0.00000000
Si       1.14145659       1.73812671      -1.22289626       0.00000000
Si      -1.34157924      -0.11440467       2.35552149       0.00000000
Si      -0.30527460       1.91606238       1.97707623       0.00000000
Si      -0.22126707      -2.29013291      -2.68552026       0.00000000
Si       2.49530220       0.44258301      -2.69464686       0.00000000
Si       3.43000611       0.74909565       1.64704315       0.00000000
Si       3.04329780      -2.49932094      -0.08972206       0.00000000
Si      -3.32964342      -2.11262241       0.27321483       0.00000000
