10
Lattice="16.28999089631971 0.0 0.0 0.0 16.28999089631971 0.0 0.0 0.0 34.31052061344573" Properties=species:S:1:pos:R:3:initial_magmoms:R:1 pbc="T T T"
Si       2.11945932      -0.51975851       0.86514026       0.00000000
Si      -1.69556094      -1.41287373       0.83223645       0.00000000
Si       0.00892692      -0.53209982      -2.32206871       0.00000000
Si      -0.38446029       2.09361035       1.29724720       0.00000000
Si      -0.45434439       0.76882610       3.33127893       0.00000000
Si       1.38665367      -0.71846882       3.15344740       0.00000000
Si       2.79679656      -2.32817073      -0.53894996       0.00000000
Si       3.34636903       1.50039371       0.60733086       0.00000000
Si      -3.65396103      -0.78028123      -0.29476185       0.00000000
Si      -2.24393121      -0.69301895       3.00972055       0.00000000
