10
Lattice="16.28999089631971 0.0 0.0 0.0 16.28999089631971 0.0 0.0 0.0 34.31052061344573" Properties=species:S:1:pos:R:3:initial_magmoms:R:1 pbc="T T T"
Si      -0.75093642       1.14877080      -1.92317438       0.00000000
Si       2.32601652      -0.18301000      -0.51894691       0.00000000
Si      -0.86115456       1.77505614       1.35691323       0.00000000
Si      -1.25002944      -2.03958035       0.40802094       0.00000000
Si       0.34018407       0.71190558       3.18539051       0.00000000
Si      -0.54685530      -3.35612186      -1.40947697       0.00000000
Si      -3.20502492       1.47367485       1.17201373       0.00000000
Si       0.02897991      -0.21251608      -3.75405340       0.00000000
Si       0.03658734       3.83333022       0.57377516       0.00000000
Si      -0.19500759       3.43723887      -1.79770073       0.00000000
