10
Lattice="16.28999089631971 0.0 0.0 0.0 16.28999089631971 0.0 0.0 0.0 34.31052061344573" Properties=species:S:1:pos:R:3:initial_magmoms:R:1 pbc="T T T"
Si       0.93149219      -1.93829823      -0.97520847       0.00000000
Si       2.02030113       1.08048312       0.74361233       0.00000000
Si      -0.95211792      -0.81287100       2.06154878       0.00000000
Si      -0.49954914       1.24566372      -2.23927738       0.00000000
Si       1.10410103      -1.79010810       2.73547641       0.00000000
Si       0.09542682      -1.94149107      -3.13203762       0.00000000
Si       1.31469652      -3.32421885       0.92068902       0.00000000
Si       2.50268876       0.10072107       2.85010792       0.00000000
Si       3.85459586      -0.03132567      -0.31198574       0.00000000
Si      -2.41613280      -2.73100221       1.61060536       0.00000000
