10
Lattice="16.28999089631971 0.0 0.0 0.0 16.28999089631971 0.0 0.0 0.0 34.31052061344573" Properties=species:S:1:pos:R:3:initial_magmoms:R:1 pbc="T T T"
Si       1.35228570      -1.35420399      -1.35663874       0.00000000
Si      -1.35462753      -1.36536264       1.34854146       0.00000000
Si      -1.36021500       1.35799956      -1.35540356       0.00000000
Si       1.36120610       1.35223290       1.36164808       0.00000000
Si      -0.02099781       2.66797620       2.73979953       0.00000000
Si      -2.70932022      -0.03914487       2.69969051       0.00000000
Si       2.70944144      -2.70814734       0.00675918       0.00000000
Si       2.71152656       0.00244350      -2.71290007       0.00000000
Si      -0.00339840      -2.71236645      -2.71300300       0.00000000
Si      -2.71810053      -2.70936909       0.00459761       0.00000000
