10
Lattice="16.28999089631971 0.0 0.0 0.0 16.28999089631971 0.0 0.0 0.0 34.31052061344573" Properties=species:S:1:pos:R:3:initial_magmoms:R:1 pbc="T T T"
Si       0.30415059       0.57168126       2.25468281       0.00000000
Si      -2.18623203      -0.23947929      -0.86462560       0.00000000
Si       1.49209884      -1.89556956      -0.25056987       0.00000000
Si       0.52403301       2.35105425      -0.70587074       0.00000000
Si       1.62644247       2.35753767       1.42803898       0.00000000
Si      -1.14950385      -0.58663548      -3.00079981       0.00000000
Si      -1.95651045       0.97987608       2.72998672       0.00000000
Si       0.68624883      -2.27802618      -2.69378910       0.00000000
Si      -2.93909067      -2.16427311       0.30577553       0.00000000
Si       3.61300701      -0.34578783      -0.59703770       0.00000000
