10
Lattice="16.28999089631971 0.0 0.0 0.0 16.28999089631971 0.0 0.0 0.0 34.31052061344573" Properties=species:S:1:pos:R:3:initial_magmoms:R:1 pbc="T T T"
Si      -1.35744570      -1.35630540       1.35862875       0.00000000
Si      -1.35681039       1.35824391      -1.35821703       0.00000000
Si       1.35887922       1.35884664       1.35828565       0.00000000
Si       1.36166481      -1.35879777      -1.35904048       0.00000000
Si      -0.00534312      -2.70001863      -2.69690793       0.00000000
Si      -2.70246213      -0.01115865      -2.71840005       0.00000000
Si      -2.71331127      -2.71425609       0.00360261       0.00000000
Si       2.71327597       2.71570543      -0.00024017       0.00000000
Si       2.71586198      -2.71350675      -0.00082345       0.00000000
Si      -2.71391400       0.00110772       2.71557629       0.00000000
