10
Lattice="16.28999089631971 0.0 0.0 0.0 16.28999089631971 0.0 0.0 0.0 34.31052061344573" Properties=species:S:1:pos:R:3:initial_magmoms:R:1 pbc="T T T"
Si       1.25283132       1.57881688      -1.18745347       0.00000000
Si      -0.30747375       0.87245982       2.15700070       0.00000000
Si      -1.69007121      -1.26040617      -1.06372967       0.00000000
Si      -0.25935309      -1.68733449       2.29328217       0.00000000
Si      -2.41149015      -2.16595098       1.10188299       0.00000000
Si       2.47290345       0.15250698      -2.55719884       0.00000000
Si      -0.25907616      -2.55467925      -2.53942598       0.00000000
Si      -0.24549030       2.86782585      -2.54189634       0.00000000
Si      -2.97624816       0.15478758      -2.52354020       0.00000000
Si      -2.52877815       1.66300311       2.53108852       0.00000000
