10
Lattice="16.28999089631971 0.0 0.0 0.0 16.28999089631971 0.0 0.0 0.0 34.31052061344573" Properties=species:S:1:pos:R:3:initial_magmoms:R:1 pbc="T T T"
Si       1.02752433       0.04424364      -2.07263109       0.00000000
Si       0.57337542       1.90478970       1.25140832       0.00000000
Si      -2.34972824      -0.00218286       0.58818558       0.00000000
Si       1.29717270      -2.05568397       0.54488568       0.00000000
Si      -1.41582580      -0.34323030      -3.08938962       0.00000000
Si       2.04429726       0.68046588       2.65275369       0.00000000
Si      -1.96652391      -1.38810348       2.48408308       0.00000000
Si       0.17238078      -2.28770244       2.61134087       0.00000000
Si      -3.18579362      -0.00537570      -1.56864357       0.00000000
Si       2.73927753      -1.60544466      -2.30762397       0.00000000
