10
Lattice="16.28999089631971 0.0 0.0 0.0 16.28999089631971 0.0 0.0 0.0 34.31052061344573" Properties=species:S:1:pos:R:3:initial_magmoms:R:1 pbc="T T T"
Si      -2.30560515       0.40366620      -0.00144104       0.00000000
Si       0.61885710       0.86912037      -2.12255292       0.00000000
Si      -0.24438258      -2.30097879      -0.58942076       0.00000000
Si      -2.06663085       2.07989091       1.57852500       0.00000000
Si       1.40120064      -3.18498822       0.81075806       0.00000000
Si       2.92313691       0.30354786      -2.12354793       0.00000000
Si      -1.21367016       0.72915669       3.37533366       0.00000000
Si       2.11072788      -1.59870060       2.54426377       0.00000000
Si      -3.42440235      -1.43042490       0.96563583       0.00000000
Si       1.67770710       3.38688552       0.74714631       0.00000000
