10
Lattice="16.28999089631971 0.0 0.0 0.0 16.28999089631971 0.0 0.0 0.0 34.31052061344573" Properties=species:S:1:pos:R:3:initial_magmoms:R:1 pbc="T T T"
Si      -1.90021221       0.74681505      -1.18072861       0.00000000
Si       1.28370087       1.41309234       1.46688335       0.00000000
Si       1.52651961      -0.51235308      -1.84477479       0.00000000
Si      -1.46737062      -1.42079751       1.44831106       0.00000000
Si      -2.77998624      -1.56657672      -1.65294456       0.00000000
Si       3.51693511       0.81766026      -0.98769751       0.00000000
Si       2.47700853      -0.13470201       2.81838581       0.00000000
Si       2.60804254       2.79822194      -0.11699894       0.00000000
Si      -0.23731272       2.58496236       2.83098121       0.00000000
Si      -3.01879764       2.53302984       0.08049253       0.00000000
