10
Lattice="16.28999089631971 0.0 0.0 0.0 16.28999089631971 0.0 0.0 0.0 34.31052061344573" Properties=species:S:1:pos:R:3:initial_magmoms:R:1 pbc="T T T"
Si       1.52755632       1.77248232      -0.10982804       0.00000000
Si      -2.16259524       0.77157585      -0.60118928       0.00000000
Si       0.22331961      -0.76295844       2.26672581       0.00000000
Si       1.16180280      -1.55628144      -1.43225917       0.00000000
Si      -2.86576938       2.08811736       1.21630864       0.00000000
Si       2.29092364       1.93759776      -2.25108020       0.00000000
Si       2.97537569      -0.29611962      -2.38523442       0.00000000
Si       2.21373511       0.56705490       3.12380309       0.00000000
Si       1.11446406      -2.92969134       2.37260814       0.00000000
Si       2.26287878      -3.27209085      -0.29459029       0.00000000
