10
Lattice="16.28999089631971 0.0 0.0 0.0 16.28999089631971 0.0 0.0 0.0 34.31052061344573" Properties=species:S:1:pos:R:3:initial_magmoms:R:1 pbc="T T T"
Si       0.70310735       2.15490636      -0.39649260       0.00000000
Si       1.52475866      -0.68815476       1.63098582       0.00000000
Si       0.81570383      -0.85636530      -2.02830187       0.00000000
Si      -2.25275292      -0.18391410       0.64987593       0.00000000
Si       1.22753132      -2.98432800       1.32380356       0.00000000
Si      -0.58288389      -2.74719447      -2.14293338       0.00000000
Si      -0.69838814      -3.47358186       0.09236397       0.00000000
Si       3.04635869       1.93653891      -0.31507369       0.00000000
Si      -3.34115298       0.17231562      -1.42388740       0.00000000
Si      -2.29250052       1.17274968       2.66644360       0.00000000
