10
Lattice="16.28999089631971 0.0 0.0 0.0 16.28999089631971 0.0 0.0 0.0 34.31052061344573" Properties=species:S:1:pos:R:3:initial_magmoms:R:1 pbc="T T T"
Si      -0.96776839       0.85955814      -1.96513617       0.00000000
Si       1.05255880       1.74671154       1.17752198       0.00000000
Si      -1.79948692      -0.90806976       1.31614342       0.00000000
Si       1.82410044      -1.62939096      -0.04381456       0.00000000
Si      -0.45168490      -2.20159350       2.77656126       0.00000000
Si       2.27147271       0.51847812       2.78234601       0.00000000
Si      -2.88177823      -2.41105032      -0.16952838       0.00000000
Si       2.88461202       2.52382599      -0.14859895       0.00000000
Si       0.93583118      -3.50752045       1.40586892       0.00000000
Si       2.62530780      -1.71066177      -2.31084917       0.00000000
