10
Lattice="16.28999089631971 0.0 0.0 0.0 16.28999089631971 0.0 0.0 0.0 34.31052061344573" Properties=species:S:1:pos:R:3:initial_magmoms:R:1 pbc="T T T"
Si      -1.35585254      -1.35667715       1.35694754       0.00000000
Si       1.35742941      -1.35783374      -1.35708478       0.00000000
Si      -1.35865930       1.35817908      -1.35677599       0.00000000
Si       1.35754344       1.35846089       1.35763375       0.00000000
Si       0.00011403       2.71275122       2.71204231       0.00000000
Si      -0.00153126      -2.71382963       2.71324318       0.00000000
Si       2.71357191       0.00026351      -2.71458129       0.00000000
Si       2.71472850      -2.71400882       0.00000000       0.00000000
Si      -0.00074934      -2.71483961      -2.71461560       0.00000000
Si       2.71482624       2.71490150      -0.00024017       0.00000000
