10
Lattice="16.28999089631971 0.0 0.0 0.0 16.28999089631971 0.0 0.0 0.0 34.31052061344573" Properties=species:S:1:pos:R:3:initial_magmoms:R:1 pbc="T T T"
Si      -0.06764488       0.97104690      -2.08971846       0.00000000
Si      -1.79288620      -0.93504600       1.30006135       0.00000000
Si       1.18384482       1.93937337       1.03485460       0.00000000
Si       0.00196229      -1.93772808       2.46622170       0.00000000
Si       2.69495083       0.79065144       2.45388706       0.00000000
Si      -2.73747814       0.81953361       2.49892308       0.00000000
Si       1.47667223      -3.39188751       0.87840197       0.00000000
Si       2.32308271       1.55914848      -2.60574898       0.00000000
Si      -0.78688096      -0.55333872      -3.78939398       0.00000000
Si      -0.95878933       3.13777980      -2.19560079       0.00000000
