10
Lattice="16.28999089631971 0.0 0.0 0.0 16.28999089631971 0.0 0.0 0.0 34.31052061344573" Properties=species:S:1:pos:R:3:initial_magmoms:R:1 pbc="T T T"
Si      -1.15518906       0.75680082       1.87194874       0.00000000
Si      -0.78249178       1.33437906      -1.75532722       0.00000000
Si       2.33502489      -0.10085139      -0.17038614       0.00000000
Si      -0.59182385      -2.31234921       0.00497503       0.00000000
Si      -0.99076595      -0.59738688      -3.32438251       0.00000000
Si       2.69324199      -1.74231324      -1.81766947       0.00000000
Si      -0.96167038       3.16628730       1.66738930       0.00000000
Si       3.11070582      -1.08040167       1.81166512       0.00000000
Si      -0.22203270      -0.28083960       3.74327989       0.00000000
Si       1.24247088      -3.42415800      -1.05062304       0.00000000
