10
Lattice="16.28999089631971 0.0 0.0 0.0 16.28999089631971 0.0 0.0 0.0 34.31052061344573" Properties=species:S:1:pos:R:3:initial_magmoms:R:1 pbc="T T T"
Si      -1.10107598       1.71580941      -1.13766888       0.00000000
Si       1.33964562      -0.81132345      -1.83386404       0.00000000
Si      -1.86765080      -1.18198611       0.96752291       0.00000000
Si       1.24231287       0.93050109       2.15116791       0.00000000
Si      -1.14841472       0.34239951       2.66719843       0.00000000
Si      -1.81060322       0.12952179      -2.87117459       0.00000000
Si      -0.52451357      -3.17479068       1.40765852       0.00000000
Si       0.71249691       2.97597123      -2.09064412       0.00000000
Si       1.26940314      -3.17166300      -1.47343182       0.00000000
Si       0.29836764       0.05155785      -3.78050683       0.00000000
