10
Lattice="16.28999089631971 0.0 0.0 0.0 16.28999089631971 0.0 0.0 0.0 34.31052061344573" Properties=species:S:1:pos:R:3:initial_magmoms:R:1 pbc="T T T"
Si       1.35448906      -1.35350352       1.36058446       0.00000000
Si      -1.35252516      -1.35852084      -1.36837295       0.00000000
Si      -1.36308380       1.36130596       1.35965807       0.00000000
Si       1.37178905       1.34437365      -1.38687662       0.00000000
Si      -2.54583282       0.18927351      -2.71987540       0.00000000
Si       2.71670773      -2.71117728       0.00212725       0.00000000
Si      -2.71469496      -2.71319724       0.00085776       0.00000000
Si      -0.00253310      -2.71067229       2.71814958       0.00000000
Si       2.71266781       0.00350235       2.71811527       0.00000000
Si       2.71529050       2.71777377       0.00154397       0.00000000
