10
Lattice="16.28999089631971 0.0 0.0 0.0 16.28999089631971 0.0 0.0 0.0 34.31052061344573" Properties=species:S:1:pos:R:3:initial_magmoms:R:1 pbc="T T T"
Si       1.03053798       1.69358985      -1.25562851       0.00000000
Si      -1.77042068      -1.03822686      -1.21764675       0.00000000
Si      -0.74067372       1.82748504       1.35759944       0.00000000
Si       1.64393793      -1.77604983       0.29520788       0.00000000
Si       0.86651397      -1.67977593       2.85319587       0.00000000
Si       2.33479683       0.35614827      -2.60914500       0.00000000
Si      -0.38821676      -2.35397016      -2.59579820       0.00000000
Si       2.65500936       2.29559887       0.41735341       0.00000000
Si       1.39989744       2.22430895       2.61628159       0.00000000
Si       3.50661798      -0.97091658      -1.03037982       0.00000000
