10
Lattice="16.28999089631971 0.0 0.0 0.0 16.28999089631971 0.0 0.0 0.0 34.40246978574605" Properties=species:S:1:pos:R:3:initial_magmoms:R:1 pbc="T T T"
Si       1.35809730       1.33690531       1.37816715       0.00000000
Si       1.34882829      -1.37486722      -1.37765455       0.00000000
Si      -1.35826020      -1.37516044       1.37235313       0.00000000
Si      -1.28589513       1.44597827      -1.50424195       0.00000000
Si      -0.39604248      -2.43208822      -2.75021551       0.00000000
Si      -2.69700726       2.70151698       0.00867631       0.00000000
Si       2.73481407       2.66344725       0.02311503       0.00000000
Si       0.00218286       2.69768883       2.73531094       0.00000000
Si       2.71471221      -0.01817469       2.73541415       0.00000000
Si      -2.71581504      -0.01968780       2.73558616       0.00000000
