10
Lattice="16.28999089631971 0.0 0.0 0.0 16.28999089631971 0.0 0.0 0.0 34.40246978574605" Properties=species:S:1:pos:R:3:initial_magmoms:R:1 pbc="T T T"
Si      -1.29567402       1.35677781       1.39564017       0.00000000
Si       1.61013618      -1.35451350       1.13683025       0.00000000
Si      -1.68691095      -0.76937670      -1.62744415       0.00000000
Si       2.22233067      -1.40123322      -1.54766477       0.00000000
Si       2.29291524       0.96865227      -2.33878441       0.00000000
Si      -2.21247848      -0.36170316       2.73611049       0.00000000
Si       0.44919675       2.41399881       2.76820113       0.00000000
Si      -1.07015526       0.04588893      -3.81816024       0.00000000
Si       0.53732565      -2.92786686       2.73130446       0.00000000
Si      -1.54916271      -3.18748059      -1.97838394       0.00000000
