10
Lattice="16.28999089631971 0.0 0.0 0.0 16.28999089631971 0.0 0.0 0.0 34.40246978574605" Properties=species:S:1:pos:R:3:initial_magmoms:R:1 pbc="T T T"
Si      -1.35827553       1.35658233       1.35573329       0.00000000
Si       1.35742126       1.35711990      -1.35783184       0.00000000
Si      -1.35686092      -1.35786924      -1.35800385       0.00000000
Si       1.36050007      -1.35858600       1.35786624       0.00000000
Si      -2.71194195       2.71428867       0.00106648       0.00000000
Si      -2.71469496      -0.00076563      -2.71476921       0.00000000
Si       2.71532309       2.71432125      -0.00075685       0.00000000
Si      -0.00022643       2.71485882      -2.71507884       0.00000000
Si       2.71340087      -2.71653995      -0.00017201       0.00000000
Si      -2.71619364      -2.71386676       0.00058484       0.00000000
