10
Lattice="16.28999089631971 0.0 0.0 0.0 16.28999089631971 0.0 0.0 0.0 34.40246978574605" Properties=species:S:1:pos:R:3:initial_magmoms:R:1 pbc="T T T"
Si       0.25221807       0.20308743       2.37191401       0.00000000
Si      -2.06314479      -1.22521977      -0.02174237       0.00000000
Si       2.21346891      -0.51637671      -0.88926994       0.00000000
Si      -0.13662423       1.86787656      -1.68365781       0.00000000
Si       0.10200798       2.54686005       2.70214350       0.00000000
Si       1.88933049       2.99604051      -1.25617248       0.00000000
Si      -1.96151148       3.12710985      -0.96550585       0.00000000
Si      -1.49138208      -3.48499205       0.47705932       0.00000000
Si      -3.28272822      -0.44893611       1.92437203       0.00000000
Si       2.45278530      -0.44981577       2.96893480       0.00000000
