10
Lattice="16.28999089631971 0.0 0.0 0.0 16.28999089631971 0.0 0.0 0.0 34.40246978574605" Properties=species:S:1:pos:R:3:initial_magmoms:R:1 pbc="T T T"
Si       1.43338968      -0.58283895       1.72074370       0.00000000
Si      -0.03904713      -1.53538041      -1.80709394       0.00000000
Si       0.39539088       2.20539722      -0.78747297       0.00000000
Si      -2.02129578      -0.30714699       1.24210187       0.00000000
Si      -2.39920749      -1.44901083      -2.13061495       0.00000000
Si      -1.19663082       2.31897110      -2.51110648       0.00000000
Si      -2.19511008      -2.70107652       1.40434400       0.00000000
Si      -3.08198166       0.84986722      -1.96988652       0.00000000
Si       1.20801753       1.03090125       3.44578770       0.00000000
Si       3.65889690      -0.59888460       1.14075213       0.00000000
