10
Lattice="16.28999089631971 0.0 0.0 0.0 16.28999089631971 0.0 0.0 0.0 34.40246978574605" Properties=species:S:1:pos:R:3:initial_magmoms:R:1 pbc="T T T"
Si      -1.82488725       1.25923329       0.71815196       0.00000000
Si       2.02595472       1.12816395       0.42748533       0.00000000
Si       0.13662423      -1.86787656       1.68365781       0.00000000
Si      -0.04722471      -0.22147884      -2.68535508       0.00000000
Si       2.35009314      -2.38425327       0.79438787       0.00000000
Si      -3.75087024      -0.22540473      -0.34430011       0.00000000
Si       3.77496315      -0.52748649       0.14063738       0.00000000
Si      -1.68104655       1.45813419       3.12006494       0.00000000
Si       2.14259112       3.17886318      -0.65182396       0.00000000
Si      -2.94238125      -2.57269599      -0.60331645       0.00000000
