10
Lattice="16.28999089631971 0.0 0.0 0.0 16.28999089631971 0.0 0.0 0.0 34.40246978574605" Properties=species:S:1:pos:R:3:initial_magmoms:R:1 pbc="T T T"
Si       1.17815796      -0.21457188       2.08699259       0.00000000
Si       0.39019437       1.88131581      -1.50073978       0.00000000
Si       1.06538229      -1.75223385      -1.36495315       0.00000000
Si      -2.55968028      -0.04041549       0.11345941       0.00000000
Si      -1.51229844       3.18124152      -0.81502937       0.00000000
Si      -0.49585131      -1.15320168       3.50109112       0.00000000
Si      -2.98284561       1.41027417      -1.74083475       0.00000000
Si       3.30667452      -0.85933008      -1.60394725       0.00000000
Si      -3.22322085      -2.21693868      -0.51166822       0.00000000
Si      -1.44461349      -3.67979697       0.13296562       0.00000000
