10
Lattice="16.28999089631971 0.0 0.0 0.0 16.28999089631971 0.0 0.0 0.0 34.40246978574605" Properties=species:S:1:pos:R:3:initial_magmoms:R:1 pbc="T T T"
Si       0.82104044       0.11331161      -2.19498201       0.00000000
Si      -1.09373082       1.94558475       0.80766723       0.00000000
Si      -1.82901255      -1.42536101       0.52188576       0.00000000
Si       1.88172632      -1.04370260       1.01700638       0.00000000
Si       1.50381461      -2.18556644      -2.35571044       0.00000000
Si      -3.51861135      -0.25112990      -0.65096390       0.00000000
Si      -1.54691862       1.18793685       3.05229203       0.00000000
Si       1.94877596       0.04586124       3.08174056       0.00000000
Si      -2.16509154      -1.11458039       2.88279097       0.00000000
Si      -1.03231752       0.58641068      -3.60651613       0.00000000
