10
Lattice="16.28999089631971 0.0 0.0 0.0 16.28999089631971 0.0 0.0 0.0 34.40246978574605" Properties=species:S:1:pos:R:3:initial_magmoms:R:1 pbc="T T T"
Si       1.46873898       1.38008880      -1.13366522       0.00000000
Si       0.44098659      -2.03242185      -1.10817298       0.00000000
Si      -2.36525913       0.01285281      -0.29971448       0.00000000
Si       0.61739100       0.48742938       2.29519646       0.00000000
Si      -2.75564898       0.01638774       2.05510149       0.00000000
Si       3.40120539       1.00033632       0.16726490       0.00000000
Si      -1.05704181      -1.91238084      -2.89679278       0.00000000
Si      -0.00734679      -3.63584655       0.50564778       0.00000000
Si       1.92526623       0.24713559      -3.12175066       0.00000000
Si      -1.28510181       1.78735509       2.98090687       0.00000000
