10
Lattice="16.28999089631971 0.0 0.0 0.0 16.28999089631971 0.0 0.0 0.0 34.40246978574605" Properties=species:S:1:pos:R:3:initial_magmoms:R:1 pbc="T T T"
Si       1.35355239      -1.35210258       1.35473561       0.00000000
Si      -1.35809730      -1.35610992      -1.35800385       0.00000000
Si       1.35633798       1.35801940      -1.35790064       0.00000000
Si      -1.35710361       1.35988920       1.36044643       0.00000000
Si       2.69368182       0.00421911       2.70840475       0.00000000
Si       2.71194291      -2.71438641       0.00113528       0.00000000
Si      -0.00135207      -2.71427238      -2.71507884       0.00000000
Si       2.71423980       0.00104256      -2.71535406       0.00000000
Si      -2.71546155      -2.71432125       0.00165132       0.00000000
Si       2.71520091       2.71554204      -0.00024082       0.00000000
