10
Lattice="16.28999089631971 0.0 0.0 0.0 16.28999089631971 0.0 0.0 0.0 34.40246978574605" Properties=species:S:1:pos:R:3:initial_magmoms:R:1 pbc="T T T"
Si      -1.36055709       1.35469662      -1.36075605       0.00000000
Si       1.35710361      -1.35988920      -1.36044643       0.00000000
Si      -1.37090124      -1.35656604       1.37585874       0.00000000
Si       1.35526284       1.36590577       1.40633935       0.00000000
Si       2.71065600      -2.71199178      -0.00571081       0.00000000
Si       2.71375110       2.71144511       0.00065365       0.00000000
Si      -2.71345788       2.71265057      -0.00271780       0.00000000
Si      -2.72308527      -2.70562239      -0.00168572       0.00000000
Si      -0.00133578       2.71299266      -2.71814066       0.00000000
Si       2.71344159      -0.00186980      -2.71834707       0.00000000
