10
Lattice="16.28999089631971 0.0 0.0 0.0 16.28999089631971 0.0 0.0 0.0 34.40246978574605" Properties=species:S:1:pos:R:3:initial_magmoms:R:1 pbc="T T T"
Si      -2.29415328       0.36719289       0.45855078       0.00000000
Si      -0.05245380      -2.30571918      -0.55780196       0.00000000
Si       1.30824990      -0.32583258       1.95557509       0.00000000
Si       1.65674187       1.08514436      -1.74241726       0.00000000
Si       3.07385784      -1.36645407       0.80116516       0.00000000
Si       1.41069771       3.33580823      -0.90777848       0.00000000
Si       0.14499729      -2.35155924      -3.02576771       0.00000000
Si      -2.86591599       2.62696517      -0.04025091       0.00000000
Si       2.05146486      -3.32830764      -0.05435593       0.00000000
Si       0.60087294      -2.32904646       3.08315107       0.00000000
