10
Lattice="16.28999089631971 0.0 0.0 0.0 16.28999089631971 0.0 0.0 0.0 34.40246978574605" Properties=species:S:1:pos:R:3:initial_magmoms:R:1 pbc="T T T"
Si      -0.76572774      -1.81782783      -1.28696271       0.00000000
Si       1.80354735      -0.58098937       1.42663682       0.00000000
Si       0.65296836       1.72077460      -1.55547414       0.00000000
Si      -1.86020397       1.40888626       0.62093052       0.00000000
Si      -0.50137362       3.30872380       0.44251922       0.00000000
Si      -1.67337396      -3.08292552       0.44671632       0.00000000
Si      -3.09048993      -0.63132709      -2.09686611       0.00000000
Si       1.23225705      -0.14676801       3.63665271       0.00000000
Si       3.71855088       0.69077256       0.68110048       0.00000000
Si      -3.33653409       1.61933677      -1.26222732       0.00000000
