10
Lattice="16.28999089631971 0.0 0.0 0.0 16.28999089631971 0.0 0.0 0.0 34.40246978574605" Properties=species:S:1:pos:R:3:initial_magmoms:R:1 pbc="T T T"
Si      -1.12285341      -0.73195110       1.87988961       0.00000000
Si      -0.24286761       2.18502494      -0.72740623       0.00000000
Si      -0.58463181      -1.54317681      -1.72225740       0.00000000
Si       2.07332604      -0.47478087       1.13552295       0.00000000
Si      -0.43041438      -2.96760699       1.51357191       0.00000000
Si       0.99414612       1.90801349      -2.70245312       0.00000000
Si       1.93619682      -2.80537488       1.09664814       0.00000000
Si       0.46711575       3.56236073       1.03947121       0.00000000
Si       1.94048109       0.62346554       3.22664385       0.00000000
Si      -1.29200877      -3.54639069      -0.59468143       0.00000000
