10
Lattice="16.28999089631971 0.0 0.0 0.0 16.28999089631971 0.0 0.0 0.0 34.40246978574605" Properties=species:S:1:pos:R:3:initial_magmoms:R:1 pbc="T T T"
Si      -0.70998336      -1.37733579      -1.76687743       0.00000000
Si      -1.95719463      -0.38123487       1.27815567       0.00000000
Si       1.87879086      -0.79913853       1.21991226       0.00000000
Si       0.23754078       2.33592084      -0.51421400       0.00000000
Si      -3.42243126       1.32406749       0.33043591       0.00000000
Si      -0.46711575      -3.56236073      -1.03947121       0.00000000
Si      -0.05872545       3.45517416       1.53992421       0.00000000
Si      -2.91055059      -0.72443259      -2.36389823       0.00000000
Si       2.18833344       0.47338740       3.12866556       0.00000000
Si       3.78302670      -0.93437811      -0.18907608       0.00000000
