10
Lattice="16.28999089631971 0.0 0.0 0.0 16.28999089631971 0.0 0.0 0.0 34.40246978574605" Properties=species:S:1:pos:R:3:initial_magmoms:R:1 pbc="T T T"
Si      -2.39173038       0.25181082       0.30955360       0.00000000
Si       1.12176198      -1.87338258      -1.08041017       0.00000000
Si       0.11826540       2.17937394      -1.18836518       0.00000000
Si      -0.33358662      -0.71755821       2.46348625       0.00000000
Si       1.93249899      -0.35637633      -2.79389494       0.00000000
Si       3.14884071       0.91041552      -1.17794122       0.00000000
Si      -2.25473148       0.83430864       2.57486740       0.00000000
Si       2.07995607       1.96517673       2.19346830       0.00000000
Si      -1.18166031       1.68964767      -3.11370048       0.00000000
Si      -0.62022546      -3.46613733      -1.32783287       0.00000000
