10
Lattice="16.28999089631971 0.0 0.0 0.0 16.28999089631971 0.0 0.0 0.0 34.40246978574605" Properties=species:S:1:pos:R:3:initial_magmoms:R:1 pbc="T T T"
Si      -1.27192320       1.40025582       1.42979153       0.00000000
Si      -1.74850344      -0.79141707      -1.43187085       0.00000000
Si       1.58307849       1.39455432      -1.18607844       0.00000000
Si       1.43268921      -1.33164234       1.42815053       0.00000000
Si      -2.49088761      -2.45887776       0.10088186       0.00000000
Si      -2.62386288       0.02547756       2.80780386       0.00000000
Si      -2.61423549       2.84643315      -0.05234339       0.00000000
Si       0.09637164      -2.69601129       2.80546449       0.00000000
Si       2.90452329      -2.62884762       0.05982249       0.00000000
Si       0.09084933       2.73761595       2.80752864       0.00000000
