10
Lattice="16.28999089631971 0.0 0.0 0.0 16.28999089631971 0.0 0.0 0.0 34.40246978574605" Properties=species:S:1:pos:R:3:initial_magmoms:R:1 pbc="T T T"
Si      -1.35883035      -1.89983754       0.17841131       0.00000000
Si      -1.60112781       1.83093084      -0.28901531       0.00000000
Si       1.50851916       0.43782633       1.95843049       0.00000000
Si      -1.41029046       0.16737975      -2.35849704       0.00000000
Si       1.15434198      -1.58794920      -1.99799335       0.00000000
Si       0.16490367       2.99152818      -1.38597307       0.00000000
Si       0.50137362      -3.30872380      -0.44251922       0.00000000
Si       0.59841315       2.51786385       2.65638819       0.00000000
Si       3.06152631      -0.07719831      -2.09638447       0.00000000
Si      -2.83516047      -1.68938703      -1.70474654       0.00000000
