10
Lattice="16.28999089631971 0.0 0.0 0.0 16.28999089631971 0.0 0.0 0.0 34.40246978574605" Properties=species:S:1:pos:R:3:initial_magmoms:R:1 pbc="T T T"
Si      -1.74900843       1.65565044       0.28684795       0.00000000
Si      -1.42487001      -1.85676678       0.65375050       0.00000000
Si       1.19078271       0.58546260      -2.04068684       0.00000000
Si      -0.19083735       1.66355109       2.06948173       0.00000000
Si       1.41029046      -0.16737975       2.35849704       0.00000000
Si       0.49655178      -1.77686433      -2.39964241       0.00000000
Si       2.56463244      -1.75532895       0.36050368       0.00000000
Si       0.05146011      -2.06721729       2.53690834       0.00000000
Si       1.57519413       2.82414843       0.97252396       0.00000000
Si       3.15766989       1.74172680      -0.42077684       0.00000000
