10
Lattice="16.28999089631971 0.0 0.0 0.0 16.28999089631971 0.0 0.0 0.0 34.40246978574605" Properties=species:S:1:pos:R:3:initial_magmoms:R:1 pbc="T T T"
Si      -1.30083795       0.58637484      -1.87108257       0.00000000
Si      -0.29626623       1.11925332       2.05413822       0.00000000
Si      -0.23754078      -2.33592084       0.51421400       0.00000000
Si       2.24673309       0.42743331      -0.74973344       0.00000000
Si       1.70839746       0.44781210       3.10884972       0.00000000
Si      -3.29830146      -0.71658081      -1.51945473       0.00000000
Si       0.04719213      -0.25949970      -3.69513694       0.00000000
Si      -0.73697589       3.36818556       1.38710836       0.00000000
Si       3.36592125       0.64799991       1.46131453       0.00000000
Si       3.15683910      -1.65260421      -1.44769114       0.00000000
