10
Lattice="16.28999089631971 0.0 0.0 0.0 16.28999089631971 0.0 0.0 0.0 34.40246978574605" Properties=species:S:1:pos:R:3:initial_magmoms:R:1 pbc="T T T"
Si      -0.30954258      -1.27252593      -1.90875330       0.00000000
Si       2.20560084      -0.42051006       0.70067549       0.00000000
Si      -1.50622227      -0.69828714       1.69143277       0.00000000
Si      -0.24239520       2.31034554      -0.53402984       0.00000000
Si      -0.28988055       0.56850471       3.30738649       0.00000000
Si       1.92603186      -0.14722902       3.03199456       0.00000000
Si      -0.71496810      -3.41228259      -0.94149292       0.00000000
Si       1.41512859       2.51053335      -2.18156504       0.00000000
Si      -3.61279620      -0.58714047       0.50637024       0.00000000
Si      -2.18833344      -0.47338740      -3.12866556       0.00000000
