10
Lattice="16.28999089631971 0.0 0.0 0.0 16.28999089631971 0.0 0.0 0.0 34.40246978574605" Properties=species:S:1:pos:R:3:initial_magmoms:R:1 pbc="T T T"
Si      -1.33486776      -1.36203948      -1.35181140       0.00000000
Si       1.35832536      -1.35083196       1.35817586       0.00000000
Si      -1.35870003       1.36332639       1.35735020       0.00000000
Si       1.36124127       1.36506942      -1.38021066       0.00000000
Si      -2.48782835       0.13851387      -2.69138928       0.00000000
Si      -0.00107514      -2.71019988       2.71545726       0.00000000
Si       2.71502172      -2.71137276      -0.00216736       0.00000000
Si       2.71397916       0.00464265       2.71573248       0.00000000
Si      -2.71755156      -2.71241532       0.00048163       0.00000000
Si       2.71375110       2.71730232      -0.00213295       0.00000000
