10
Lattice="16.28999089631971 0.0 0.0 0.0 16.28999089631971 0.0 0.0 0.0 34.40246978574605" Properties=species:S:1:pos:R:3:initial_magmoms:R:1 pbc="T T T"
Si       0.78928308      -2.16186219       0.24941805       0.00000000
Si       0.94926717       1.13573880      -1.86864000       0.00000000
Si      -2.24129223      -0.89290377       0.23899409       0.00000000
Si       1.35158130       1.95084153       0.70466618       0.00000000
Si      -0.60878988       3.44147427       0.28454299       0.00000000
Si       0.83676843      -0.42002136      -3.59199828       0.00000000
Si      -0.42705864      -3.42865404      -1.36653567       0.00000000
Si       3.08135124       1.85290605      -1.02952889       0.00000000
Si      -3.30667452       0.85933008       1.60394725       0.00000000
Si      -0.27960156      -1.10710098       3.62082757       0.00000000
