10
Lattice="16.28999089631971 0.0 0.0 0.0 16.28999089631971 0.0 0.0 0.0 34.40246978574605" Properties=species:S:1:pos:R:3:initial_magmoms:R:1 pbc="T T T"
Si       1.35405738      -1.35518139      -1.35714379       0.00000000
Si       1.35534429       1.35830907       1.35735020       0.00000000
Si      -1.35891180      -1.35679410       1.35748781       0.00000000
Si      -1.35913986       1.35586557      -1.36037762       0.00000000
Si      -0.00425169      -2.70324405      -2.69617123       0.00000000
Si       2.71239903      -2.71327869      -0.00061924       0.00000000
Si      -2.71456560      -2.71226871      -0.00006880       0.00000000
Si       2.71314837       0.00112401       2.71497563       0.00000000
Si      -0.00213399      -2.71362078       2.71497563       0.00000000
Si       2.71358820       2.71606428       0.00041283       0.00000000
