10
Lattice="16.28999089631971 0.0 0.0 0.0 16.28999089631971 0.0 0.0 0.0 34.40246978574605" Properties=species:S:1:pos:R:3:initial_magmoms:R:1 pbc="T T T"
Si      -1.35534429      -1.35651717       1.35649014       0.00000000
Si      -1.35780408       1.35718506      -1.35762542       0.00000000
Si       1.35754344      -1.35782037      -1.35814146       0.00000000
Si       1.35795069       1.35961227       1.35786624       0.00000000
Si       0.00599472       2.70694188       2.71466601       0.00000000
Si      -2.71314837      -0.00112401      -2.71497563       0.00000000
Si      -2.71453302       2.71399545      -0.00027522       0.00000000
Si       2.70923877       0.00381186       2.71986078       0.00000000
Si       2.71495656       2.71451673      -0.00075685       0.00000000
Si       0.00043983       2.71494027      -2.71456280       0.00000000
