10
Lattice="16.28999089631971 0.0 0.0 0.0 16.28999089631971 0.0 0.0 0.0 34.40246978574605" Properties=species:S:1:pos:R:3:initial_magmoms:R:1 pbc="T T T"
Si       0.92602134       0.99725751       1.95602232       0.00000000
Si       1.72976994      -0.09793548      -1.73419507       0.00000000
Si      -1.35158130      -1.95084153      -0.70466618       0.00000000
Si      -1.96037118       1.49063274      -0.42012320       0.00000000
Si      -0.40231413      -0.81510273      -2.57330618       0.00000000
Si      -1.48424706       1.30271130      -2.72939027       0.00000000
Si       1.70039907      -0.87197112       3.16195379       0.00000000
Si      -0.95047263       2.02989690       2.94836211       0.00000000
Si      -1.40076081       3.39498261       0.92941764       0.00000000
Si       2.10132855       2.09901537      -2.59563339       0.00000000
