10
Lattice="16.28999089631971 0.0 0.0 0.0 16.28999089631971 0.0 0.0 0.0 34.40246978574605" Properties=species:S:1:pos:R:3:initial_magmoms:R:1 pbc="T T T"
Si       1.30090311      -1.31404914       1.39859879       0.00000000
Si      -1.34012943      -1.35632169      -1.35366914       0.00000000
Si       1.37930688       1.35549595      -1.35249945       0.00000000
Si      -1.43863506       1.17815796       1.49984531       0.00000000
Si       2.35817298       0.34239951       2.73785328       0.00000000
Si       0.11507256       1.58324695       3.38155825       0.00000000
Si      -2.68076385      -2.71839375       0.00897905       0.00000000
Si      -2.69368182      -0.00421911      -2.70840475       0.00000000
Si      -2.69552259       2.72157586       0.05838102       0.00000000
Si       0.02151909       2.71132293      -2.70864557       0.00000000
