10
Lattice="16.28999089631971 0.0 0.0 0.0 16.28999089631971 0.0 0.0 0.0 34.40246978574605" Properties=species:S:1:pos:R:3:initial_magmoms:R:1 pbc="T T T"
Si      -0.77183649       0.16770555      -2.22498098       0.00000000
Si       0.20799072       2.35411677      -0.03777393       0.00000000
Si       2.21069961      -0.69398658      -0.62770781       0.00000000
Si      -1.59042528      -1.32302493       1.56438438       0.00000000
Si       0.17922258       2.33005644      -2.51444352       0.00000000
Si      -0.09984141      -1.93761405      -2.94120640       0.00000000
Si      -3.02666571       0.48360123       1.87173622       0.00000000
Si       1.91166408      -2.61899217      -1.96066665       0.00000000
Si       2.31640542       2.90036512       0.86928209       0.00000000
Si       1.03650012       0.27370458       3.65980559       0.00000000
