10
Lattice="16.28999089631971 0.0 0.0 0.0 16.28999089631971 0.0 0.0 0.0 34.40246978574605" Properties=species:S:1:pos:R:3:initial_magmoms:R:1 pbc="T T T"
Si       1.35578909       1.35782037       1.35690297       0.00000000
Si       1.35494364      -1.35962856      -1.35800385       0.00000000
Si      -1.35867944      -1.35780408       1.35721259       0.00000000
Si      -1.35685496       1.35697329      -1.36065284       0.00000000
Si       0.02567459       2.70192456      -2.70180980       0.00000000
Si       2.71343679       0.00008145       2.71414997       0.00000000
Si       2.71565223      -2.71238274      -0.00013761       0.00000000
Si      -0.00057370       2.71528236       2.71359953       0.00000000
Si      -0.00084540      -2.71490769       2.71397796       0.00000000
Si       2.71379517       2.71611315      -0.00113528       0.00000000
