10
Lattice="16.28999089631971 0.0 0.0 0.0 16.28999089631971 0.0 0.0 0.0 34.40246978574605" Properties=species:S:1:pos:R:3:initial_magmoms:R:1 pbc="T T T"
Si       1.35723393      -1.35550882      -1.35470121       0.00000000
Si      -1.35557235       1.35684297      -1.35590530       0.00000000
Si       1.34473950       1.38653964       1.34830235       0.00000000
Si      -1.34661285      -1.37380249       1.36429951       0.00000000
Si      -2.62769103       0.10384875       2.59157390       0.00000000
Si      -2.71251306      -2.71305277       0.00075685       0.00000000
Si      -2.71344159      -0.00014661      -2.71325550       0.00000000
Si      -0.00045612      -2.71417619      -2.71301469       0.00000000
Si       0.00097740       2.71539639      -2.71280827       0.00000000
Si       2.71656665       0.00048870      -2.71328991       0.00000000
