10
Lattice="16.28999089631971 0.0 0.0 0.0 16.28999089631971 0.0 0.0 0.0 34.40246978574605" Properties=species:S:1:pos:R:3:initial_magmoms:R:1 pbc="T T T"
Si      -1.31727456      -0.69973695      -1.84359498       0.00000000
Si       1.66419522      -1.70527141       0.41864389       0.00000000
Si      -1.36896273       1.25222859       1.75583423       0.00000000
Si       1.37972946       1.80675648      -1.40093816       0.00000000
Si       0.50748141       0.13349655      -3.09326540       0.00000000
Si       0.23651451      -2.51842260       2.09635007       0.00000000
Si       2.92337801       1.79888841       1.00878419       0.00000000
Si      -3.27614706      -0.25852230       1.85422535       0.00000000
Si      -3.13510824       0.83450412      -1.98791343       0.00000000
Si       3.73186700      -0.54840285       0.74976785       0.00000000
