10
Lattice="16.28999089631971 0.0 0.0 0.0 16.28999089631971 0.0 0.0 0.0 34.40246978574605" Properties=species:S:1:pos:R:3:initial_magmoms:R:1 pbc="T T T"
Si      -0.57129030       0.43422135       2.21001589       0.00000000
Si      -1.80354735       0.58098937      -1.42663682       0.00000000
Si       0.22472055      -2.38137387       0.27463507       0.00000000
Si       1.91500353       1.27176193      -0.74553634       0.00000000
Si       2.36208258       0.04186367      -2.73998624       0.00000000
Si       1.11830850      -0.74000976       3.38286555       0.00000000
Si      -2.00964843      -3.08681232       0.74963024       0.00000000
Si      -0.40775499       2.70984476       2.74714196       0.00000000
Si       1.42180749      -2.82785019       2.28153867       0.00000000
Si       3.76836148       0.79866286       0.66599778       0.00000000
