10
Lattice="16.28999089631971 0.0 0.0 0.0 16.28999089631971 0.0 0.0 0.0 34.40246978574605" Properties=species:S:1:pos:R:3:initial_magmoms:R:1 pbc="T T T"
Si      -1.33522614      -1.35721764      -1.37654679       0.00000000
Si       1.37775933       1.35935163      -1.37713164       0.00000000
Si       1.27946547      -1.24996428       1.57401708       0.00000000
Si      -1.36669842       1.39242033       1.40857551       0.00000000
Si       0.37533789       2.34204588       2.64414090       0.00000000
Si       2.14687539       0.52277868       3.08672892       0.00000000
Si      -2.68745252      -2.71357028       0.01847414       0.00000000
Si      -2.69572622       0.00136836      -2.73441303       0.00000000
Si      -2.69641854       2.73396699      -0.00615805       0.00000000
Si       2.73349458      -2.70396244       0.03251035       0.00000000
