10
Lattice="16.28999089631971 0.0 0.0 0.0 16.28999089631971 0.0 0.0 0.0 34.40246978574605" Properties=species:S:1:pos:R:3:initial_magmoms:R:1 pbc="T T T"
Si       0.55568448      -1.45463184      -1.77241623       0.00000000
Si      -2.22032700      -0.78778440       0.27336218       0.00000000
Si       1.20424495      -0.43034922       2.03181100       0.00000000
Si       0.14540454       2.26085652      -0.98315433       0.00000000
Si       2.48670990      -0.30674070      -2.44274873       0.00000000
Si      -3.13043301       1.29225312       0.97131987       0.00000000
Si      -2.31620994       2.45835648      -1.14481163       0.00000000
Si      -1.83168018      -2.40547914       2.04619124       0.00000000
Si       0.29051586       1.15926156       3.47231202       0.00000000
Si       1.72669832       1.92508704      -2.75223352       0.00000000
