10
Lattice="16.28999089631971 0.0 0.0 0.0 16.28999089631971 0.0 0.0 0.0 34.40246978574605" Properties=species:S:1:pos:R:3:initial_magmoms:R:1 pbc="T T T"
Si       1.02775795      -1.66987161       1.27447878       0.00000000
Si      -0.28655739      -1.31875695      -1.95134358       0.00000000
Si      -1.81048689       0.98389971       1.25271886       0.00000000
Si       1.77053634       1.62725697      -0.21763015       0.00000000
Si       2.35778595      -0.25291854       2.55411100       0.00000000
Si       1.26156669      -2.94676326      -1.44531737       0.00000000
Si      -0.50616288       2.33548101       2.60650256       0.00000000
Si       0.87066028       3.49097958       1.11257649       0.00000000
Si      -2.58486462       2.85312834       0.04678739       0.00000000
Si       3.00363884      -2.41839711      -0.07234843       0.00000000
