10
Lattice="16.28999089631971 0.0 0.0 0.0 16.28999089631971 0.0 0.0 0.0 34.40246978574605" Properties=species:S:1:pos:R:3:initial_magmoms:R:1 pbc="T T T"
Si       1.35199899      -1.35871632      -1.35748781       0.00000000
Si       1.35604543       1.35511623       1.35728140       0.00000000
Si      -1.36132272       1.35580041      -1.35542366       0.00000000
Si      -1.35816246      -1.35948195       1.35707498       0.00000000
Si       0.00618797       2.69035866      -2.72970333       0.00000000
Si      -2.70772380       0.00597843      -2.71643773       0.00000000
Si       2.71465424       2.71213839      -0.00048163       0.00000000
Si       2.71335104      -0.00306252       2.71414997       0.00000000
Si      -0.00115983       2.71322982       2.71449399       0.00000000
Si      -2.71437012      -2.71425609      -0.00010321       0.00000000
