10
Lattice="16.28999089631971 0.0 0.0 0.0 16.28999089631971 0.0 0.0 0.0 34.40246978574605" Properties=species:S:1:pos:R:3:initial_magmoms:R:1 pbc="T T T"
Si      -1.35195597       1.34732961       1.35679976       0.00000000
Si       1.35128808      -1.35580041       1.36199454       0.00000000
Si       1.35700587       1.35490446      -1.35862310       0.00000000
Si      -1.35795069      -1.35961227      -1.35786624       0.00000000
Si      -2.69767287       0.00829161       2.71404676       0.00000000
Si      -0.00055386       2.71298547      -2.71545726       0.00000000
Si      -2.71329498      -2.71612944      -0.00137610       0.00000000
Si      -2.71746522       2.71248048       0.00065365       0.00000000
Si       2.71625976       2.71397916       0.00154811       0.00000000
Si       2.71526607      -0.00237834      -2.71580129       0.00000000
