10
Lattice="16.28999089631971 0.0 0.0 0.0 16.28999089631971 0.0 0.0 0.0 34.40246978574605" Properties=species:S:1:pos:R:3:initial_magmoms:R:1 pbc="T T T"
Si      -1.36762695      -1.34952876      -1.36708611       0.00000000
Si       1.36226640       1.35264015      -1.37448264       0.00000000
Si      -0.93447585       1.71833436       1.36392108       0.00000000
Si       1.37194398      -1.33042059       1.42993946       0.00000000
Si       2.72858544       0.13980078       2.66326869       0.00000000
Si       2.70991385      -2.69312796      -0.00144490       0.00000000
Si       2.69495148       2.72854242       0.00615805       0.00000000
Si      -2.71244790       2.71987614       0.01180005       0.00000000
Si      -0.00133578      -2.71143792      -2.72863342       0.00000000
Si      -2.73686661      -2.70345582       0.02005665       0.00000000
