10
Lattice="16.28999089631971 0.0 0.0 0.0 16.28999089631971 0.0 0.0 0.0 34.40246978574605" Properties=species:S:1:pos:R:3:initial_magmoms:R:1 pbc="T T T"
Si      -1.26361530      -1.93507281      -0.07950415       0.00000000
Si       1.51971039      -0.58616307       1.75583423       0.00000000
Si      -1.55274651       1.56191778       0.94259380       0.00000000
Si       0.78019326       0.78405399      -2.14134853       0.00000000
Si       3.39584339       0.57914208       0.79934183       0.00000000
Si      -2.54510073      -1.71924660       1.86919044       0.00000000
Si      -2.20033917       0.37237311       2.90611586       0.00000000
Si       1.90777077      -2.96929233       1.68699485       0.00000000
Si      -2.59416621      -2.32562556      -1.98485160       0.00000000
Si       1.71466911      -0.93428037      -3.50526961       0.00000000
