10
Lattice="16.28999089631971 0.0 0.0 0.0 16.28999089631971 0.0 0.0 0.0 34.40246978574605" Properties=species:S:1:pos:R:3:initial_magmoms:R:1 pbc="T T T"
Si       0.15688899      -1.95988248       1.14384836       0.00000000
Si      -1.83112632       1.40770035       0.13220877       0.00000000
Si       2.12617080       1.02019383      -0.26558722       0.00000000
Si      -0.96229917      -2.18044908      -1.06719961       0.00000000
Si      -0.14807610      -1.01434572      -3.18333111       0.00000000
Si      -0.76253490       3.17884689       1.21822654       0.00000000
Si       1.58485410       3.01951440       0.85731003       0.00000000
Si      -1.78357581       2.33671905      -1.97889997       0.00000000
Si       2.45864970      -2.31344064       1.43379253       0.00000000
Si       3.64740660      -0.29049957       1.07053665       0.00000000
