10
Lattice="16.28999089631971 0.0 0.0 0.0 16.28999089631971 0.0 0.0 0.0 34.40246978574605" Properties=species:S:1:pos:R:3:initial_magmoms:R:1 pbc="T T T"
Si       0.77437773      -1.86922863       1.20593147       0.00000000
Si      -1.87649397       1.03263939       0.99233980       0.00000000
Si      -0.92602134      -0.99725751      -1.95602232       0.00000000
Si       1.59889608       1.83770748       0.13988052       0.00000000
Si       2.07870174      -0.51764733       2.55971517       0.00000000
Si      -2.32678215       2.39772510      -1.02660467       0.00000000
Si      -0.63024381       2.37200319       2.54350472       0.00000000
Si       3.45552490       0.63785124       1.06578911       0.00000000
Si      -2.88639252       0.49337523      -2.37614551       0.00000000
Si       2.58486462      -2.85312834      -0.04678739       0.00000000
