10
Lattice="16.28999089631971 0.0 0.0 0.0 16.28999089631971 0.0 0.0 0.0 34.40246978574605" Properties=species:S:1:pos:R:3:initial_magmoms:R:1 pbc="T T T"
Si       1.34864910      -1.34933328       1.35817586       0.00000000
Si      -1.35710361      -1.35527913      -1.35635253       0.00000000
Si       1.35610992       1.35919437      -1.35587090       0.00000000
Si      -1.35594702       1.36031779       1.35790064       0.00000000
Si       0.00995319       2.69956807       2.72144330       0.00000000
Si      -0.00008145      -2.71327869      -2.71298028       0.00000000
Si       2.71438641       0.00167787      -2.71346192       0.00000000
Si      -2.71469592       0.00164529      -2.71335871       0.00000000
Si       0.00053757       2.71590531      -2.71277387       0.00000000
Si       2.71673217      -2.71228500       0.00402509       0.00000000
