10
Lattice="16.28999089631971 0.0 0.0 0.0 16.28999089631971 0.0 0.0 0.0 34.40246978574605" Properties=species:S:1:pos:R:3:initial_magmoms:R:1 pbc="T T T"
Si       1.53207517      -1.32983415      -1.16235690       0.00000000
Si       0.81842656       1.43352000       1.68909341       0.00000000
Si      -1.14100047       1.43435079      -1.53077315       0.00000000
Si      -1.25289648      -1.60357131       1.29029975       0.00000000
Si       1.21219333       3.19686430       0.14067178       0.00000000
Si       0.13328478      -3.15672507      -1.63074678       0.00000000
Si       0.30553524      -1.81115478       3.08442396       0.00000000
Si      -1.14719067       1.99078039       2.78728966       0.00000000
Si      -3.28437351       1.42047171      -0.59643595       0.00000000
Si       3.17369015      -2.09074005       0.36673053       0.00000000
