10
Lattice="16.28999089631971 0.0 0.0 0.0 16.28999089631971 0.0 0.0 0.0 34.40246978574605" Properties=species:S:1:pos:R:3:initial_magmoms:R:1 pbc="T T T"
Si      -2.14337304      -0.01387908       0.93433720       0.00000000
Si       1.14100047      -1.43435079       1.53077315       0.00000000
Si       0.61817292       2.30251724       0.16950106       0.00000000
Si       0.33607899      -0.31078062      -2.36090521       0.00000000
Si       2.35319380       1.76251351       1.67144493       0.00000000
Si      -3.49964586       1.13455682      -0.62038008       0.00000000
Si       1.95942703      -0.00083079       3.21986656       0.00000000
Si       2.16509154       1.11458039      -2.88279097       0.00000000
Si       1.07136072       3.06016514      -2.07512373       0.00000000
Si       2.67307564      -2.76418494       0.36841625       0.00000000
