10
Lattice="16.28999089631971 0.0 0.0 0.0 16.28999089631971 0.0 0.0 0.0 34.40246978574605" Properties=species:S:1:pos:R:3:initial_magmoms:R:1 pbc="T T T"
Si       1.35601218       1.35606061       1.35717819       0.00000000
Si      -1.35640151      -1.35854150       1.35666215       0.00000000
Si      -1.35736099       1.35746480      -1.35786624       0.00000000
Si       1.35799956      -1.35793877      -1.35779744       0.00000000
Si      -0.00651600      -2.70425840       2.71624852       0.00000000
Si      -2.71424961       2.71473131      -0.00065365       0.00000000
Si       0.00311139       2.71401455       2.71521645       0.00000000
Si       2.71477737       0.00139274      -2.71466601       0.00000000
Si       2.71523349       2.71435664      -0.00020641       0.00000000
Si      -2.71464119      -2.71505867      -0.00041283       0.00000000
