10
Lattice="16.28999089631971 0.0 0.0 0.0 16.28999089631971 0.0 0.0 0.0 34.40246978574605" Properties=species:S:1:pos:R:3:initial_magmoms:R:1 pbc="T T T"
Si       1.34760346      -1.34842104      -1.35793505       0.00000000
Si      -1.36492167       1.36761066      -1.35304989       0.00000000
Si      -1.36226640      -1.35264015       1.37448264       0.00000000
Si       1.33268508       1.37590227       1.38064069       0.00000000
Si      -2.29674225       0.36569421       2.73840372       0.00000000
Si      -0.54169023       2.21684094       2.80366524       0.00000000
Si       2.70232384      -2.70537804       0.00165132       0.00000000
Si       2.70559813       0.00767259      -2.71332431       0.00000000
Si      -0.00824946      -2.70604593      -2.71359953       0.00000000
Si      -2.72989335      -2.70216891       0.00739654       0.00000000
