10
Lattice="16.28999089631971 0.0 0.0 0.0 16.28999089631971 0.0 0.0 0.0 34.40246978574605" Properties=species:S:1:pos:R:3:initial_magmoms:R:1 pbc="T T T"
Si      -1.02446181      -0.13222593      -2.04509036       0.00000000
Si      -1.55789415       0.71050464       1.58468185       0.00000000
Si       0.41034510      -2.08886670       0.97974848       0.00000000
Si       2.18572704       1.07834913       0.19144985       0.00000000
Si       0.41647014      -1.75031163      -2.86634658       0.00000000
Si      -0.04717584       0.41767560       3.43821915       0.00000000
Si       1.94036706       1.43037603       2.67575679       0.00000000
Si      -2.26957167       2.90411604       0.65498899       0.00000000
Si       1.96726185       2.88489384      -1.48608432       0.00000000
Si      -1.51563789      -3.57350472      -0.08270358       0.00000000
