10
Lattice="16.28999089631971 0.0 0.0 0.0 16.28999089631971 0.0 0.0 0.0 34.40246978574605" Properties=species:S:1:pos:R:3:initial_magmoms:R:1 pbc="T T T"
Si      -1.41445418      -0.05595615      -1.86557817       0.00000000
Si       1.33951041       1.10897433       1.65149149       0.00000000
Si       0.71167752      -2.19361140       0.92969286       0.00000000
Si      -1.43737421       2.00419128       0.33931175       0.00000000
Si      -3.29058719      -1.22126130      -0.90908577       0.00000000
Si       0.01275507       0.24478983       3.67556193       0.00000000
Si       1.61991018       3.31806123       0.58852338       0.00000000
Si       2.26957167      -2.90411604      -0.65498899       0.00000000
Si      -1.66815399       2.43033768      -2.34452963       0.00000000
Si      -0.36704302      -1.42957782      -3.50692092       0.00000000
