10
Lattice="16.28999089631971 0.0 0.0 0.0 16.28999089631971 0.0 0.0 0.0 34.40246978574605" Properties=species:S:1:pos:R:3:initial_magmoms:R:1 pbc="T T T"
Si       1.55789415      -0.71050464      -1.58468185       0.00000000
Si       1.51071831      -0.29282904       1.85353730       0.00000000
Si      -1.85606631      -1.60277310       0.10888388       0.00000000
Si      -0.71167752       2.19361140      -0.92969286       0.00000000
Si       0.62783289       3.30258573       0.72179862       0.00000000
Si       1.96823925      -2.79937134      -0.60493337       0.00000000
Si       3.49826121       0.71987139       1.09107494       0.00000000
Si      -0.69892245       2.43840123       2.74586906       0.00000000
Si       0.53343234      -0.84273057      -3.62977221       0.00000000
Si       2.11207995      -2.60047044       1.79697961       0.00000000
