10
Lattice="16.28999089631971 0.0 0.0 0.0 16.28999089631971 0.0 0.0 0.0 34.40246978574605" Properties=species:S:1:pos:R:3:initial_magmoms:R:1 pbc="T T T"
Si       0.61675569       0.81526563      -2.19071610       0.00000000
Si       0.13774824      -2.41810389      -0.35093979       0.00000000
Si       1.68691095       0.76937670       1.62744415       0.00000000
Si      -2.25139922       1.09485090       0.52697733       0.00000000
Si      -0.92877272      -2.95020045       1.68713246       0.00000000
Si       2.43869445      -2.40282387      -0.84602601       0.00000000
Si      -1.82864877      -1.08647784       3.01733910       0.00000000
Si       0.39123693       2.12615451       3.02308432       0.00000000
Si      -1.45101220       3.35899800       1.46891748       0.00000000
Si       3.90924162      -0.63185652       0.07977937       0.00000000
