10
Lattice="16.28999089631971 0.0 0.0 0.0 16.28999089631971 0.0 0.0 0.0 34.40246978574605" Properties=species:S:1:pos:R:3:initial_magmoms:R:1 pbc="T T T"
Si      -1.36751069      -1.33455825       1.37427967       0.00000000
Si       1.34909835       1.38233682       1.36688313       0.00000000
Si      -1.37681228       1.39292532      -1.34550543       0.00000000
Si       1.39451161      -1.39307193      -1.41521519       0.00000000
Si       2.31131607       0.32540904      -2.75568551       0.00000000
Si      -2.71391177      -2.68438023       0.01326560       0.00000000
Si      -0.00618797      -2.69035866       2.72970333       0.00000000
Si       2.72327388      -2.69785206       0.00856966       0.00000000
Si       2.70846627       0.02177973       2.72922170       0.00000000
Si      -2.72275724       0.02249649       2.72953132       0.00000000
