10
Lattice="16.28999089631971 0.0 0.0 0.0 16.28999089631971 0.0 0.0 0.0 34.40246978574605" Properties=species:S:1:pos:R:3:initial_magmoms:R:1 pbc="T T T"
Si       1.34988551      -1.34571690       1.35958637       0.00000000
Si       1.35640151       1.35854150      -1.35666215       0.00000000
Si      -1.35823968      -1.35651717      -1.35707498       0.00000000
Si      -1.35464250       1.35551688       1.36371466       0.00000000
Si       2.71241369       2.71460211       0.00051604       0.00000000
Si      -2.71424862      -2.71287144       0.00285541       0.00000000
Si       2.71440107       0.00060273      -2.71445959       0.00000000
Si      -0.00103442      -2.71463076      -2.71428758       0.00000000
Si       2.71461284      -2.71430496       0.00247698       0.00000000
Si      -0.00095948       2.71600631      -2.71452840       0.00000000
