10
Lattice="16.28999089631971 0.0 0.0 0.0 16.28999089631971 0.0 0.0 0.0 34.54679606040008" Properties=species:S:1:pos:R:3:initial_magmoms:R:1 pbc="T T T"
Si      -1.35780408      -1.35649088       1.35772439       0.00000000
Si       1.35684297       1.35836699       1.35751711       0.00000000
Si      -1.35576783       1.35706379      -1.36066087       0.00000000
Si       1.35923760      -1.35673523      -1.35813895       0.00000000
Si       0.00659745       2.71189494      -2.71101297       0.00000000
Si       2.71283886      -2.71530494       0.00086367       0.00000000
Si      -0.00050499      -2.71395287       2.71493058       0.00000000
Si       2.71288773       2.71622808       0.00148551       0.00000000
Si       2.71432125       0.00072098       2.71524150       0.00000000
Si      -0.00066789       2.71600002       2.71479239       0.00000000
