10
Lattice="16.28999089631971 0.0 0.0 0.0 16.28999089631971 0.0 0.0 0.0 34.54679606040008" Properties=species:S:1:pos:R:3:initial_magmoms:R:1 pbc="T T T"
Si       1.82521305       0.77856426      -1.20088185       0.00000000
Si      -1.83744684      -1.19584890      -0.89959907       0.00000000
Si       1.21326291      -1.26239355       1.64743398       0.00000000
Si      -1.03993731       2.15920692       0.36844179       0.00000000
Si      -2.85009188      -0.44162190       1.22554828       0.00000000
Si       2.18030247       0.60735636       2.62051413       0.00000000
Si       3.00123702       1.67961303       0.63711237       0.00000000
Si      -0.61432848      -3.23756324      -1.49743171       0.00000000
Si      -1.60083459      -0.28600353       3.25980295       0.00000000
Si      -2.27058165       0.11663640      -2.84828129       0.00000000
