10
Lattice="16.28999089631971 0.0 0.0 0.0 16.28999089631971 0.0 0.0 0.0 34.54679606040008" Properties=species:S:1:pos:R:3:initial_magmoms:R:1 pbc="T T T"
Si       1.04962986      -0.59873895       2.03115794       0.00000000
Si      -2.15254431       0.97840998       0.10491868       0.00000000
Si       1.01724534       1.84489137      -1.18474849       0.00000000
Si      -0.20393451      -1.71668418      -1.85509489       0.00000000
Si       0.60502689       0.27269460      -2.95361453       0.00000000
Si      -0.74938887      -1.64375874       3.13789557       0.00000000
Si      -0.48114144       3.63672621      -0.77270862       0.00000000
Si      -3.76471674      -0.79496829      -0.53975944       0.00000000
Si      -2.52016074      -2.40052372      -1.89043628       0.00000000
Si       2.10647619       1.22137533       3.13192934       0.00000000
