10
Lattice="16.28999089631971 0.0 0.0 0.0 16.28999089631971 0.0 0.0 0.0 34.54679606040008" Properties=species:S:1:pos:R:3:initial_magmoms:R:1 pbc="T T T"
Si      -1.35553977      -1.35692442      -1.35775894       0.00000000
Si      -1.35503478       1.35826020       1.35727528       0.00000000
Si       1.35874890       1.35843939      -1.35758620       0.00000000
Si       1.36150191      -1.36034532       1.36062632       0.00000000
Si      -2.71319724       0.00043983      -2.71513786       0.00000000
Si      -2.71230129       2.71616202      -0.00031092       0.00000000
Si       0.00197109      -2.71455745      -2.71503422       0.00000000
Si      -2.71371852      -2.71638356      -0.00089822       0.00000000
Si       0.00210141       2.71554300      -2.71510331       0.00000000
Si       2.71713942       2.71500543       0.00027637       0.00000000
