10
Lattice="16.28999089631971 0.0 0.0 0.0 16.28999089631971 0.0 0.0 0.0 34.54679606040008" Properties=species:S:1:pos:R:3:initial_magmoms:R:1 pbc="T T T"
Si      -0.63180765      -1.80939546       1.35319876       0.00000000
Si       1.19788515      -1.48612041      -1.47497628       0.00000000
Si      -1.75974354       1.13311611      -1.25415304       0.00000000
Si       1.62279351       1.23404895       1.40180613       0.00000000
Si      -1.57710006       3.09443211       0.79146754       0.00000000
Si       2.67411753      -2.42589051       0.24700973       0.00000000
Si      -0.51189696       2.37609198      -2.87101309       0.00000000
Si       3.52518858      -0.41181120       1.34722216       0.00000000
Si       2.48500692      -0.22724550      -2.96542954       0.00000000
Si      -2.32257933      -1.20098025       2.88994475       0.00000000
