10
Lattice="16.28999089631971 0.0 0.0 0.0 16.28999089631971 0.0 0.0 0.0 34.54679606040008" Properties=species:S:1:pos:R:3:initial_magmoms:R:1 pbc="T T T"
Si       0.51761475      -1.73218086       1.55761226       0.00000000
Si       1.04454738       2.03501196       0.77194859       0.00000000
Si      -2.37517974       0.25181082      -0.39017173       0.00000000
Si       0.72246150      -1.04389578      -2.11291777       0.00000000
Si       3.05719317       1.00191645       1.46181395       0.00000000
Si       1.94891931      -0.50604885       2.96111119       0.00000000
Si      -2.47743207       0.81648738      -2.72325636       0.00000000
Si      -1.41095835      -2.52436356       2.69779536       0.00000000
Si      -3.20458509       2.33245107       0.29043508       0.00000000
Si      -0.33153408       3.11435478       2.48184322       0.00000000
