10
Lattice="16.28999089631971 0.0 0.0 0.0 16.28999089631971 0.0 0.0 0.0 34.54679606040008" Properties=species:S:1:pos:R:3:initial_magmoms:R:1 pbc="T T T"
Si       1.17182115       1.59659919      -1.42108325       0.00000000
Si      -0.72246150       1.04389578       2.11291777       0.00000000
Si      -1.62279351      -1.23404895      -1.40180613       0.00000000
Si       1.90239507      -1.64586015      -0.05458397       0.00000000
Si       2.13837201       0.09407475      -3.05414576       0.00000000
Si      -0.20484675      -0.68828508       3.67053004       0.00000000
Si      -3.19989357       1.86038316      -0.61033859       0.00000000
Si      -3.09764124       1.29570660       1.72274604       0.00000000
Si      -2.25460116      -3.04344441      -0.04860737       0.00000000
Si       3.62053395      -0.62745822      -1.35976265       0.00000000
