10
Lattice="16.28999089631971 0.0 0.0 0.0 16.28999089631971 0.0 0.0 0.0 34.54679606040008" Properties=species:S:1:pos:R:3:initial_magmoms:R:1 pbc="T T T"
Si       1.26208404       0.97093287       1.70167248       0.00000000
Si       0.77123376      -2.17836396      -0.37697485       0.00000000
Si      -2.15759421      -0.49146930       0.96713810       0.00000000
Si       0.73326177       1.45002177      -1.80317103       0.00000000
Si      -0.04970079      -3.25062063       1.60642691       0.00000000
Si       1.13568993       3.30348168       1.02027110       0.00000000
Si      -3.26994057      -1.69877007      -0.64564543       0.00000000
Si      -1.10068272       2.84822505      -2.16653443       0.00000000
Si       3.45857877       0.09583407       1.50361559       0.00000000
Si      -0.40479021      -3.07941273      -2.21496907       0.00000000
