10
Lattice="16.28999089631971 0.0 0.0 0.0 16.28999089631971 0.0 0.0 0.0 34.54679606040008" Properties=species:S:1:pos:R:3:initial_magmoms:R:1 pbc="T T T"
Si      -0.04214223       1.86680142      -1.48482212       0.00000000
Si       2.06575119      -0.89234991      -0.84553331       0.00000000
Si       0.41062203       0.90401355       2.24461023       0.00000000
Si      -1.71538587      -1.78570980      -0.20624449       0.00000000
Si      -1.15448859       0.65950065      -3.09760565       0.00000000
Si       1.09871163      -2.76209982      -1.81861345       0.00000000
Si      -0.38494899      -3.73340899      -0.32121629       0.00000000
Si      -0.11455128      -1.49970627      -3.46604744       0.00000000
Si      -1.70181630       1.51005042       3.18207262       0.00000000
Si       3.56724936      -1.51083234       0.82100507       0.00000000
