10
Lattice="16.28999089631971 0.0 0.0 0.0 16.28999089631971 0.0 0.0 0.0 34.54679606040008" Properties=species:S:1:pos:R:3:initial_magmoms:R:1 pbc="T T T"
Si       1.35255870      -1.35443205      -1.35876080       0.00000000
Si       1.36352187       1.34359920       1.36415010       0.00000000
Si      -1.37572308      -1.34467434       1.35958992       0.00000000
Si      -1.36348929       1.35848826      -1.35827714       0.00000000
Si      -0.07700283       2.58595605       2.74363898       0.00000000
Si       2.70495450      -2.71326240       0.00238373       0.00000000
Si       2.70962973       0.00231318      -2.71544878       0.00000000
Si       2.70899442       2.71932228      -0.00393834       0.00000000
Si      -0.00529425      -2.71342530      -2.71544878       0.00000000
Si      -0.00516393       2.71694394      -2.71565606       0.00000000
