10
Lattice="16.28999089631971 0.0 0.0 0.0 16.28999089631971 0.0 0.0 0.0 34.54679606040008" Properties=species:S:1:pos:R:3:initial_magmoms:R:1 pbc="T T T"
Si       1.83394449      -1.39820328       0.36336340       0.00000000
Si      -2.09694654      -1.04663250      -0.33759148       0.00000000
Si       0.90881910       1.23564537      -1.81685157       0.00000000
Si       0.18230139       1.19244429       2.11999987       0.00000000
Si       2.06428509       2.84765490      -0.59931815       0.00000000
Si       0.62718129       3.33536121       1.26455163       0.00000000
Si       1.10068272      -2.84822505       2.16653443       0.00000000
Si       3.55117113       0.04308705       1.28403603       0.00000000
Si      -3.39410295      -0.60308838       1.57018731       0.00000000
Si      -3.25936836       0.05321943      -2.09384793       0.00000000
