10
Lattice="16.28999089631971 0.0 0.0 0.0 16.28999089631971 0.0 0.0 0.0 34.54679606040008" Properties=species:S:1:pos:R:3:initial_magmoms:R:1 pbc="T T T"
Si      -1.83394449       1.39820328      -0.36336340       0.00000000
Si       1.35532800      -0.98655498      -1.70094700       0.00000000
Si       1.71722664       1.44129033       0.92067263       0.00000000
Si      -0.73326177      -1.45002177       1.80317103       0.00000000
Si       0.40242816       1.85345991       2.82344213       0.00000000
Si      -1.65164310       2.59064757       1.75663647       0.00000000
Si      -0.92512539       2.63384865      -2.18021497       0.00000000
Si       3.04717482      -1.82006541      -0.31914348       0.00000000
Si       0.52882227      -0.47908890       3.50484351       0.00000000
Si       3.36559545      -0.18034659       1.38266719       0.00000000
