10
Lattice="16.28999089631971 0.0 0.0 0.0 16.28999089631971 0.0 0.0 0.0 34.54679606040008" Properties=species:S:1:pos:R:3:initial_magmoms:R:1 pbc="T T T"
Si       1.39958793      -0.95004909      -1.64263198       0.00000000
Si       0.21978468       0.05449005       2.40836214       0.00000000
Si      -0.56317788       2.29301298      -0.59133784       0.00000000
Si      -2.16829674      -1.06308540      -0.69376915       0.00000000
Si      -0.76375665      -1.25682237      -2.61557394       0.00000000
Si      -1.63299105       1.71725922       2.56174555       0.00000000
Si      -2.64479553       2.31120891       0.47847339       0.00000000
Si      -3.77078965       0.68846427      -0.83192186       0.00000000
Si      -0.18484263       2.56528404      -2.98470666       0.00000000
Si       2.93337288       0.57011742      -2.60444986       0.00000000
