10
Lattice="16.28999089631971 0.0 0.0 0.0 16.28999089631971 0.0 0.0 0.0 34.54679606040008" Properties=species:S:1:pos:R:3:initial_magmoms:R:1 pbc="T T T"
Si      -1.85911254      -1.05803550      -1.15889507       0.00000000
Si      -1.30077279       1.28961414       1.60752205       0.00000000
Si       1.39825215      -1.42514694       1.58300072       0.00000000
Si       1.67371605       1.02278394      -1.66566231       0.00000000
Si       2.74567950       2.48715720       0.05008943       0.00000000
Si      -2.86239735       2.43066348       0.26271471       0.00000000
Si      -3.71188827       0.60473367      -1.00551166       0.00000000
Si       0.04958676       2.64854223       2.98794715       0.00000000
Si       2.85465960      -2.80272708       0.07790652       0.00000000
Si      -2.66344758      -0.07076376       2.98525250       0.00000000
