10
Lattice="16.28999089631971 0.0 0.0 0.0 16.28999089631971 0.0 0.0 0.0 34.54679606040008" Properties=species:S:1:pos:R:3:initial_magmoms:R:1 pbc="T T T"
Si      -1.35653346       1.35294707      -1.36304460       0.00000000
Si       1.36003581      -1.36132272      -1.36259549       0.00000000
Si       1.35721764       1.35884894       1.38249446       0.00000000
Si      -1.37173203      -1.35102744       1.38677826       0.00000000
Si       2.58372432      -0.22234221       2.79065720       0.00000000
Si      -2.71138905       2.71281347       0.00010364       0.00000000
Si       2.71868697       2.70898532      -0.00152006       0.00000000
Si      -2.71551042      -2.71511946       0.00006909       0.00000000
Si       2.71596654      -2.71516833      -0.00804941       0.00000000
Si       0.00164529       2.71240622      -2.71990532       0.00000000
