10
Lattice="16.28999089631971 0.0 0.0 0.0 16.28999089631971 0.0 0.0 0.0 34.54679606040008" Properties=species:S:1:pos:R:3:initial_magmoms:R:1 pbc="T T T"
Si      -0.17431929      -2.20550310       0.72952510       0.00000000
Si      -0.74284029       0.18699291      -2.21700733       0.00000000
Si      -1.57211532       1.48053915       0.98831529       0.00000000
Si       2.11465377       0.60766587       1.01709279       0.00000000
Si      -1.61142309      -1.71779679       2.59339488       0.00000000
Si      -0.84918141       3.45881402       0.01841345       0.00000000
Si       1.06275960       1.31531976      -3.21561757       0.00000000
Si      -0.68836653       1.74594332       3.12095930       0.00000000
Si       1.50614082       2.34226158       2.58721100       0.00000000
Si       3.00671046      -1.26884439       2.17361653       0.00000000
