10
Lattice="16.28999089631971 0.0 0.0 0.0 16.28999089631971 0.0 0.0 0.0 34.54679606040008" Properties=species:S:1:pos:R:3:initial_magmoms:R:1 pbc="T T T"
Si       0.28510758       0.01420488      -2.33619384       0.00000000
Si      -1.95739825      -0.69889802       1.24396660       0.00000000
Si       0.68256729       1.87243776       1.40570788       0.00000000
Si       1.58112369      -2.02022618       0.09838937       0.00000000
Si       1.89728001       1.78758315      -1.69151572       0.00000000
Si      -0.65614491      -2.10208589       2.73620593       0.00000000
Si       2.08564128       0.61939467       2.75931775       0.00000000
Si       3.30043545      -0.83458557       1.34146117       0.00000000
Si       1.71393606       3.51978030       0.08800632       0.00000000
Si       0.52629732      -3.66711425       1.38695933       0.00000000
