10
Lattice="16.28999089631971 0.0 0.0 0.0 16.28999089631971 0.0 0.0 0.0 34.54679606040008" Properties=species:S:1:pos:R:3:initial_magmoms:R:1 pbc="T T T"
Si      -0.61175466      -0.52457058       2.16522165       0.00000000
Si      -1.38644190      -1.28717064      -1.38270174       0.00000000
Si      -0.46338534       2.17656947      -0.85513732       0.00000000
Si       2.24901369      -0.73181196       0.33804059       0.00000000
Si       1.73112201       2.77288773      -1.38888562       0.00000000
Si       0.92885580       0.92940966       3.32499279       0.00000000
Si       2.97416304       0.91215855       1.98001618       0.00000000
Si       0.05066190      -1.77487695      -3.24657152       0.00000000
Si       0.12717603      -2.77192269       2.49483282       0.00000000
Si      -2.99103948      -0.77675607       2.11457602       0.00000000
