10
Lattice="16.28999089631971 0.0 0.0 0.0 16.28999089631971 0.0 0.0 0.0 34.54679606040008" Properties=species:S:1:pos:R:3:initial_magmoms:R:1 pbc="T T T"
Si      -2.08161765       0.01819593       1.06981123       0.00000000
Si       1.34252406       1.71672165       0.99574286       0.00000000
Si       0.56317788      -2.29301298       0.59133784       0.00000000
Si       0.37833525       0.27227106      -2.39336882       0.00000000
Si      -1.06981317      -0.57575376       3.15308339       0.00000000
Si       0.78304401       3.32593974      -0.65252025       0.00000000
Si      -3.20761177      -1.60454871      -0.24058402       0.00000000
Si       2.75762007       0.52445655      -2.34272319       0.00000000
Si      -1.60511886      -3.35609838      -0.10243131       0.00000000
Si       0.78296256      -2.23852293       2.99969998       0.00000000
