10
Lattice="16.28999089631971 0.0 0.0 0.0 16.28999089631971 0.0 0.0 0.0 34.54679606040008" Properties=species:S:1:pos:R:3:initial_magmoms:R:1 pbc="T T T"
Si      -1.35659862      -1.35844990       1.35686072       0.00000000
Si       1.35700587      -1.35721186      -1.35800077       0.00000000
Si      -1.35747828       1.35764600      -1.35772439       0.00000000
Si       1.35910728       1.35850449       1.35696436       0.00000000
Si      -0.00066789      -2.71229551       2.71140680       0.00000000
Si      -0.00143352       2.71550710      -2.71375599       0.00000000
Si       2.71469592      -2.71469014      -0.00058730       0.00000000
Si      -2.71482624      -2.71467385      -0.00031092       0.00000000
Si      -2.71432125      -0.00072098      -2.71524150       0.00000000
Si       0.00205254       2.71185814       2.71793615       0.00000000
