10
Lattice="16.28999089631971 0.0 0.0 0.0 16.28999089631971 0.0 0.0 0.0 34.54679606040008" Properties=species:S:1:pos:R:3:initial_magmoms:R:1 pbc="T T T"
Si       0.53137980      -1.68254523       1.55678314       0.00000000
Si       2.15743131       0.41855526      -0.93245309       0.00000000
Si      -1.23375573       1.90294893       0.78410907       0.00000000
Si      -1.56085893      -1.17835344      -1.48243839       0.00000000
Si       0.87348609       0.94537386      -2.94100494       0.00000000
Si      -1.60230069      -2.26417968       2.21476179       0.00000000
Si      -2.85720084      -2.14399206       0.27139978       0.00000000
Si       1.82272068      -3.08765547       0.18150897       0.00000000
Si       2.90437668      -1.78139295      -1.51107770       0.00000000
Si       0.19754883       3.12908094       2.18760799       0.00000000
