10
Lattice="16.28999089631971 0.0 0.0 0.0 16.28999089631971 0.0 0.0 0.0 34.54679606040008" Properties=species:S:1:pos:R:3:initial_magmoms:R:1 pbc="T T T"
Si       0.92989836      -1.92119373      -1.08490819       0.00000000
Si      -2.37439782      -0.73997325      -0.17781246       0.00000000
Si      -0.30472074       0.32148315       2.59242757       0.00000000
Si       0.07877844       2.10479832      -1.61043435       0.00000000
Si       3.13505937       0.53423055      -0.06294430       0.00000000
Si       2.39464629       2.04792993      -1.76703506       0.00000000
Si      -0.59945571      -2.48520240      -2.81812192       0.00000000
Si      -1.36515087       3.59891712      -0.48894108       0.00000000
Si      -2.24679825       1.93440492       2.60078790       0.00000000
Si      -3.87278460       1.05186159       0.23422741       0.00000000
