10
Lattice="16.28999089631971 0.0 0.0 0.0 16.28999089631971 0.0 0.0 0.0 34.54679606040008" Properties=species:S:1:pos:R:3:initial_magmoms:R:1 pbc="T T T"
Si      -1.49838678       1.79183484       0.41203987       0.00000000
Si      -0.41221845      -1.57219677      -1.76886604       0.00000000
Si      -1.01724534      -1.84489137       1.18474849       0.00000000
Si       2.37439782       0.73997325       0.17781246       0.00000000
Si      -3.16978965      -0.86648139       1.28966716       0.00000000
Si       2.06967708       1.06145640       2.77024003       0.00000000
Si       3.30429618      -1.18122048      -0.90709573       0.00000000
Si       1.77494211      -1.74522915      -2.64030946       0.00000000
Si      -3.56884578       0.84264912      -0.34526087       0.00000000
Si      -1.22117985      -3.56157555      -0.67034641       0.00000000
