10
Lattice="16.28999089631971 0.0 0.0 0.0 16.28999089631971 0.0 0.0 0.0 34.54679606040008" Properties=species:S:1:pos:R:3:initial_magmoms:R:1 pbc="T T T"
Si      -1.35707103      -1.35674523       1.35668799       0.00000000
Si       1.35687555       1.35692442       1.35779348       0.00000000
Si      -1.35716877       1.35703845      -1.35755166       0.00000000
Si       1.35741312      -1.35754344      -1.35758620       0.00000000
Si      -2.70962973      -0.00231318       2.71544878       0.00000000
Si       2.71414206      -0.00144981       2.71285777       0.00000000
Si      -0.00144981       2.71327869      -2.71427419       0.00000000
Si       2.71461447      -0.00047241      -2.71372144       0.00000000
Si      -0.00063531       2.71700910       2.71151044       0.00000000
Si       2.71472850       2.71461447      -0.00048366       0.00000000
