10
Lattice="16.28999089631971 0.0 0.0 0.0 16.28999089631971 0.0 0.0 0.0 34.54679606040008" Properties=species:S:1:pos:R:3:initial_magmoms:R:1 pbc="T T T"
Si       0.96655086      -1.50252444      -1.63306251       0.00000000
Si      -1.17182115      -1.59659919       1.42108325       0.00000000
Si      -1.63496214       0.77084280      -1.67686787       0.00000000
Si      -0.70952724       2.34851301       0.44468661       0.00000000
Si       2.27805876       1.08313839      -0.02964117       0.00000000
Si       2.44871280      -2.22405741       0.06132060       0.00000000
Si       0.73057392      -3.24245934       1.36649928       0.00000000
Si      -3.08379474       2.01034890      -0.22952904       0.00000000
Si      -0.29861199       2.37244302      -2.84392839       0.00000000
Si       2.43875961      -0.26888274      -2.90075790       0.00000000
