10
Lattice="16.28999089631971 0.0 0.0 0.0 16.28999089631971 0.0 0.0 0.0 34.54679606040008" Properties=species:S:1:pos:R:3:initial_magmoms:R:1 pbc="T T T"
Si       1.23346251      -1.42526097      -1.41793949       0.00000000
Si      -1.33635015      -1.60160022       1.16706052       0.00000000
Si      -1.49117031       1.26456012      -1.41555576       0.00000000
Si       0.80809803       1.62606780       1.64211377       0.00000000
Si      -0.41091525      -0.02393001       3.28861500       0.00000000
Si       2.40267726       2.59985142      -0.00041456       0.00000000
Si       0.29861199      -2.37244302       2.84392839       0.00000000
Si       2.56907961      -0.07817571      -2.78229687       0.00000000
Si       2.73737160      -2.64132576      -0.05682951       0.00000000
Si      -2.78518275      -0.36209412       2.61439935       0.00000000
