10
Lattice="16.28999089631971 0.0 0.0 0.0 16.28999089631971 0.0 0.0 0.0 34.54679606040008" Properties=species:S:1:pos:R:3:initial_magmoms:R:1 pbc="T T T"
Si      -0.06714738      -2.36522655      -0.50939279       0.00000000
Si      -0.53901981       0.68932764       2.26250549       0.00000000
Si      -1.83572010       0.55014588      -1.68156624       0.00000000
Si       1.90211814       1.78873974      -0.71128438       0.00000000
Si       2.82890511      -1.01077821       0.46890392       0.00000000
Si      -3.05473338      -1.09985193      -0.03506502       0.00000000
Si      -0.48666375       2.96262972       1.72678802       0.00000000
Si       1.98120609       2.47168170       1.52638194       0.00000000
Si      -2.74812300      -0.29633139       2.18529335       0.00000000
Si      -0.24114087       1.52392950      -3.32409457       0.00000000
