10
Lattice="16.28999089631971 0.0 0.0 0.0 16.28999089631971 0.0 0.0 0.0 34.54679606040008" Properties=species:S:1:pos:R:3:initial_magmoms:R:1 pbc="T T T"
Si       0.89559162      -1.96716411       0.97729486       0.00000000
Si       1.65547125       1.69474644      -0.38036044       0.00000000
Si      -1.71401751       0.76921380       1.60266131       0.00000000
Si      -0.86240889      -3.44927718      -0.01810253       0.00000000
Si      -0.38470464       2.34027027       2.71665792       0.00000000
Si       0.62143092       3.48322554       0.89051326       0.00000000
Si      -0.59886927       1.40313915      -3.42279483       0.00000000
Si       0.93615372      -1.47137796       3.35535944       0.00000000
Si      -0.42821523      -1.90405665      -3.33183306       0.00000000
Si       1.35536058       0.92963772       3.69557648       0.00000000
