10
Lattice="16.28999089631971 0.0 0.0 0.0 16.28999089631971 0.0 0.0 0.0 34.54679606040008" Properties=species:S:1:pos:R:3:initial_magmoms:R:1 pbc="T T T"
Si      -1.47089107       1.26980550      -1.28115483       0.00000000
Si      -1.37238544      -1.33788141       1.36760823       0.00000000
Si       1.34270537       1.37797110       1.37026834       0.00000000
Si       1.34495013      -1.53671715      -1.52695888       0.00000000
Si      -0.02024761       2.61592965      -2.43962113       0.00000000
Si       2.68466254      -2.71132389       0.00752775       0.00000000
Si       2.70026836       2.70436806       0.00652244       0.00000000
Si       2.69323108       0.02208924       2.72737089       0.00000000
Si      -0.01980803      -2.69368182       2.72889095       0.00000000
Si      -2.72399932      -2.70225036      -0.02334674       0.00000000
