10
Lattice="16.28999089631971 0.0 0.0 0.0 16.28999089631971 0.0 0.0 0.0 34.54679606040008" Properties=species:S:1:pos:R:3:initial_magmoms:R:1 pbc="T T T"
Si       1.65907134      -0.66339396       1.47335258       0.00000000
Si      -1.16331777       1.85675049       1.11309839       0.00000000
Si       0.26215497      -0.14081076      -2.46111513       0.00000000
Si      -0.14941188      -2.36529171      -1.63779542       0.00000000
Si       0.01762578      -1.96876053       2.85666722       0.00000000
Si      -1.98255816       0.29155842      -3.39294638       0.00000000
Si      -2.83703382       0.83396655       2.77876070       0.00000000
Si      -1.76502150       3.65101254      -0.35068472       0.00000000
Si       2.66835087       0.79754211       3.02026021       0.00000000
Si       3.96397602      -1.46784303      -0.17117947       0.00000000
