10
Lattice="16.28999089631971 0.0 0.0 0.0 16.28999089631971 0.0 0.0 0.0 34.54679606040008" Properties=species:S:1:pos:R:3:initial_magmoms:R:1 pbc="T T T"
Si       1.51308036       1.32001847       1.20077821       0.00000000
Si      -1.80559989      -1.12832685       0.99861024       0.00000000
Si       1.69181424      -1.28348910      -1.08169534       0.00000000
Si      -1.19479005       1.28168973      -1.67075308       0.00000000
Si       0.80076753       0.23162166      -2.65658101       0.00000000
Si      -1.06275960      -1.31531976       3.21561757       0.00000000
Si       2.59473636       2.62628099      -0.49180846       0.00000000
Si       0.22173948       2.72512871       2.57605238       0.00000000
Si      -1.87049925       3.22932050      -0.46316915       0.00000000
Si      -3.49379775       0.31861841      -1.60856882       0.00000000
