10
Lattice="16.28999089631971 0.0 0.0 0.0 16.28999089631971 0.0 0.0 0.0 34.54679606040008" Properties=species:S:1:pos:R:3:initial_magmoms:R:1 pbc="T T T"
Si       1.35148423       1.35596331       1.39097225       0.00000000
Si      -1.36383138      -1.36323680       1.38824305       0.00000000
Si       1.38839574      -1.32604673      -1.47994757       0.00000000
Si      -1.34956134       1.29334455      -1.54979087       0.00000000
Si       2.69792441       2.69303022       0.02602066       0.00000000
Si      -2.71073745       2.70210375      -0.00485383       0.00000000
Si       2.68964909      -2.72923460       0.01229176       0.00000000
Si      -2.70619254      -2.71948549       0.03868207       0.00000000
Si      -0.22659390      -2.63630795      -2.79359510       0.00000000
Si       2.70667214      -0.00418653       2.74631291       0.00000000
