10
Lattice="16.28999089631971 0.0 0.0 0.0 16.28999089631971 0.0 0.0 0.0 34.54679606040008" Properties=species:S:1:pos:R:3:initial_magmoms:R:1 pbc="T T T"
Si      -1.60528176      -1.28726838      -1.21046656       0.00000000
Si       1.34956134      -1.29334455       1.54979087       0.00000000
Si       1.40551034       1.30842909      -1.52128425       0.00000000
Si      -1.36117611       1.40875920       1.54493704       0.00000000
Si       2.70777334       2.57429241       0.04132490       0.00000000
Si       2.73795708      -2.61939128       0.06984330       0.00000000
Si      -2.70467757      -2.68097888       0.24151333       0.00000000
Si      -2.65779495       2.79858942       0.03525157       0.00000000
Si      -0.01427004      -2.65658135       2.93803391       0.00000000
Si       2.70104557       0.06261876       2.94076311       0.00000000
