10
Lattice="16.28999089631971 0.0 0.0 0.0 16.28999089631971 0.0 0.0 0.0 34.54679606040008" Properties=species:S:1:pos:R:3:initial_magmoms:R:1 pbc="T T T"
Si       1.35540945       1.35726239       1.35606614       0.00000000
Si       1.35718506      -1.35700414      -1.35737892       0.00000000
Si      -1.35791811      -1.35698785       1.35672253       0.00000000
Si      -1.35698958       1.35727054      -1.35782803       0.00000000
Si       0.00001629       2.71563337       2.71019767       0.00000000
Si       2.71415835      -0.00125260      -2.71372144       0.00000000
Si      -2.71415835       2.71460710      -0.00003455       0.00000000
Si       2.71486542       2.71439533       0.00031092       0.00000000
Si      -2.71461447      -0.00071573      -2.71499967       0.00000000
Si       0.00099369       2.71542160      -2.71430874       0.00000000
