10
Lattice="16.28999089631971 0.0 0.0 0.0 16.28999089631971 0.0 0.0 0.0 34.54679606040008" Properties=species:S:1:pos:R:3:initial_magmoms:R:1 pbc="T T T"
Si       1.34497571       1.35858600      -1.37112856       0.00000000
Si      -1.45326252       1.25745768       1.37565419       0.00000000
Si      -1.36883145      -1.35436689      -1.37140493       0.00000000
Si       1.27940846      -1.35490446       1.53526047       0.00000000
Si      -2.41800519      -0.59877153       2.59954422       0.00000000
Si      -0.74078123      -2.32655409       2.71493058       0.00000000
Si       2.69026906      -2.69855253       0.00763485       0.00000000
Si       2.69137679       2.72715777      -0.01274777       0.00000000
Si      -0.25295764       2.74792752       2.67212708       0.00000000
Si       2.70501151       0.00182448      -2.73068393       0.00000000
