10
Lattice="16.28999089631971 0.0 0.0 0.0 16.28999089631971 0.0 0.0 0.0 34.54679606040008" Properties=species:S:1:pos:R:3:initial_magmoms:R:1 pbc="T T T"
Si       2.04159053       1.01851596       0.12637225       0.00000000
Si       0.09373266      -2.28583628       0.41345629       0.00000000
Si      -1.88092485       1.06780950       0.88491668       0.00000000
Si       0.14286330       0.06498081      -2.34707609       0.00000000
Si      -3.19779216      -0.59872103      -0.14374930       0.00000000
Si      -2.23466220      -2.61688166       0.63680145       0.00000000
Si       3.05423558       0.26428896      -1.99877510       0.00000000
Si       1.57789568       3.30556680      -0.06097513       0.00000000
Si      -1.60998957       1.42928460      -3.14918405       0.00000000
Si       0.64612528      -3.44438108      -1.55457214       0.00000000
