10
Lattice="16.28999089631971 0.0 0.0 0.0 16.28999089631971 0.0 0.0 0.0 34.54679606040008" Properties=species:S:1:pos:R:3:initial_magmoms:R:1 pbc="T T T"
Si       0.80261807      -1.03107555       1.93627991       0.00000000
Si      -0.34742335       2.28548700       0.39086267       0.00000000
Si       1.95582138       0.05496246      -1.44191498       0.00000000
Si      -2.14235884      -1.00580976      -0.67808489       0.00000000
Si      -0.00430545       0.95889456      -2.83601717       0.00000000
Si      -1.31077063       2.82936123      -1.71808222       0.00000000
Si      -1.68366502      -0.91092051      -3.01096224       0.00000000
Si      -0.70071013      -0.51305355       3.67412291       0.00000000
Si      -2.01930418      -3.23511255       0.08957989       0.00000000
Si       2.92165548      -2.04077862      -1.65316876       0.00000000
