10
Lattice="16.28999089631971 0.0 0.0 0.0 16.28999089631971 0.0 0.0 0.0 34.54679606040008" Properties=species:S:1:pos:R:3:initial_magmoms:R:1 pbc="T T T"
Si       1.35765747       1.35555606       1.35793167       0.00000000
Si       1.35741312      -1.35764118      -1.35713709       0.00000000
Si      -1.35798327       1.35741312      -1.35720619       0.00000000
Si      -1.35933534      -1.35785295       1.35858806       0.00000000
Si       0.00073305      -2.71322982      -2.71510331       0.00000000
Si      -2.71575477      -0.00099369       2.71299596       0.00000000
Si      -2.71528236      -0.00001629      -2.71358325       0.00000000
Si      -2.71472850      -2.71489140      -0.00003455       0.00000000
Si      -0.00050499       2.71433754      -2.71562152       0.00000000
Si       2.71513424      -0.00107514      -2.71499967       0.00000000
