10
Lattice="16.28999089631971 0.0 0.0 0.0 16.28999089631971 0.0 0.0 0.0 34.54679606040008" Properties=species:S:1:pos:R:3:initial_magmoms:R:1 pbc="T T T"
Si      -1.76169834       0.29761830       1.51097406       0.00000000
Si      -1.60099749      -1.05440283      -1.36014267       0.00000000
Si       1.01573037       1.63242090      -1.35392424       0.00000000
Si       1.13435415       1.65206664       2.48927078       0.00000000
Si       2.30337342       0.15250698      -2.71472330       0.00000000
Si       1.93663665       3.16548909       0.24763157       0.00000000
Si      -1.69455096       2.66284485       2.02036686       0.00000000
Si      -0.41226732      -2.56412745      -2.71313414       0.00000000
Si      -1.59104430      -3.00957750       1.60193583       0.00000000
Si      -3.07320624      -2.28804453      -0.09244728       0.00000000
