10
Lattice="16.28999089631971 0.0 0.0 0.0 16.28999089631971 0.0 0.0 0.0 34.54679606040008" Properties=species:S:1:pos:R:3:initial_magmoms:R:1 pbc="T T T"
Si      -1.64395422       0.09272268       1.66228912       0.00000000
Si      -0.06605595      -2.36669265      -0.40012122       0.00000000
Si      -1.05329511       1.09444365      -1.89240545       0.00000000
Si       2.14476488       0.86012829       0.76624836       0.00000000
Si       3.44192129       0.41658417      -1.14153042       0.00000000
Si      -0.62203365       1.28119221       3.38693523       0.00000000
Si       0.28723084       0.43184790      -3.68338145       0.00000000
Si      -3.38419863       0.74684763      -1.54790461       0.00000000
Si      -3.56016321       1.09400382       0.81651398       0.00000000
Si       1.09576055      -3.39755643       1.38670917       0.00000000
