10
Lattice="16.28999089631971 0.0 0.0 0.0 16.28999089631971 0.0 0.0 0.0 34.54679606040008" Properties=species:S:1:pos:R:3:initial_magmoms:R:1 pbc="T T T"
Si      -1.38991167       1.80970497      -0.54407780       0.00000000
Si      -0.66580488      -2.24023338      -0.22320697       0.00000000
Si       1.72954188      -0.06502968      -1.65147596       0.00000000
Si      -0.31221414       0.20820249       2.52150296       0.00000000
Si       1.54681695       1.69710849       2.65709921       0.00000000
Si       0.06289569       3.61440891       0.09645471       0.00000000
Si       0.70762131      -1.25349921      -3.37612208       0.00000000
Si      -2.98167273      -2.18336499      -0.06660626       0.00000000
Si      -1.56142908       1.72853190      -2.92390427       0.00000000
Si       0.25505253      -3.19613058      -2.21268898       0.00000000
