10
Lattice="16.28999089631971 0.0 0.0 0.0 16.28999089631971 0.0 0.0 0.0 34.54679606040008" Properties=species:S:1:pos:R:3:initial_magmoms:R:1 pbc="T T T"
Si       0.57959820       1.93191255      -1.21397509       0.00000000
Si       0.17151741       0.08117307       2.37982647       0.00000000
Si       0.35284140      -1.98074997      -1.29799295       0.00000000
Si      -2.29685742      -0.01446552       0.68820711       0.00000000
Si      -1.59280362       2.17277649      -2.07367259       0.00000000
Si      -2.57548158       2.27918277       0.06684809       0.00000000
Si       2.70008379       1.18770390      -1.89592923       0.00000000
Si       1.56142908      -1.72853190       2.92390427       0.00000000
Si       3.75606675       0.26228529       0.17570510       0.00000000
Si      -1.63857852      -3.19008699      -1.17241527       0.00000000
