10
Lattice="16.28999089631971 0.0 0.0 0.0 16.28999089631971 0.0 0.0 0.0 34.54679606040008" Properties=species:S:1:pos:R:3:initial_magmoms:R:1 pbc="T T T"
Si       1.66262256       1.15279443      -1.26168424       0.00000000
Si      -0.92090628      -1.53306819      -1.60155581       0.00000000
Si      -1.72906947       1.28609550       1.06145090       0.00000000
Si      -0.80228250      -1.51342245       2.24163921       0.00000000
Si      -1.93663665      -3.16548909      -0.24763157       0.00000000
Si      -2.37188916      -0.29113488      -2.96055844       0.00000000
Si       1.71387913      -1.06171704       3.24798794       0.00000000
Si       0.37742301       2.42727516      -2.93758480       0.00000000
Si       3.00563273       2.38065318       0.44558482       0.00000000
Si      -2.65802301       2.76139935      -0.46862755       0.00000000
