10
Lattice="16.28999089631971 0.0 0.0 0.0 16.28999089631971 0.0 0.0 0.0 34.54679606040008" Properties=species:S:1:pos:R:3:initial_magmoms:R:1 pbc="T T T"
Si      -0.18178011       2.27715371      -0.46838572       0.00000000
Si      -0.34347465      -0.90056007       2.16028146       0.00000000
Si       2.14910712      -0.93006126      -0.42547858       0.00000000
Si      -0.98303634      -1.71776421      -1.38411816       0.00000000
Si       1.03669560      -3.03233463      -0.57952283       0.00000000
Si       3.15071636       0.10349078       1.45784106       0.00000000
Si       1.24444197       2.01477068      -2.59526041       0.00000000
Si       0.06300972      -3.20445477       1.61862194       0.00000000
Si       2.65676609       0.07784991      -2.48726707       0.00000000
Si      -2.35926441       0.22401798       2.77683847       0.00000000
