10
Lattice="16.28999089631971 0.0 0.0 0.0 16.28999089631971 0.0 0.0 0.0 34.54679606040008" Properties=species:S:1:pos:R:3:initial_magmoms:R:1 pbc="T T T"
Si       0.50765897       1.00791117      -2.06178849       0.00000000
Si       1.00160924       1.03355204       1.88331964       0.00000000
Si      -2.14910712       0.93006126       0.42547858       0.00000000
Si      -1.11241152      -2.10227337      -0.15404425       0.00000000
Si      -3.13214346      -0.78770295      -0.95863958       0.00000000
Si      -2.49258177       0.02950119       2.58576004       0.00000000
Si      -2.08609740      -2.27439351       2.04410052       0.00000000
Si      -0.90466515       2.94483194      -2.16978183       0.00000000
Si       0.96985188       3.38933717       1.42654165       0.00000000
Si      -0.46141425       0.68608593       3.75482427       0.00000000
