10
Lattice="16.28999089631971 0.0 0.0 0.0 16.28999089631971 0.0 0.0 0.0 34.54679606040008" Properties=species:S:1:pos:R:3:initial_magmoms:R:1 pbc="T T T"
Si       1.11234636       1.20730077       1.61278353       0.00000000
Si       0.11697849       1.14802146      -2.08362208       0.00000000
Si      -2.27384942      -0.31377798       0.66975911       0.00000000
Si       1.03993731      -2.15920692      -0.36844179       0.00000000
Si      -1.81015457      -2.60082882       0.85710649       0.00000000
Si       1.15448859      -0.65950065       3.09760565       0.00000000
Si      -1.93233772       0.19906380      -2.85491428       0.00000000
Si       2.86515036      -1.38064266      -1.56932363       0.00000000
Si      -0.31368024       3.01099473       2.07837096       0.00000000
Si      -0.79750953      -3.35505582      -1.26804086       0.00000000
