10
Lattice="16.28999089631971 0.0 0.0 0.0 16.28999089631971 0.0 0.0 0.0 34.54679606040008" Properties=species:S:1:pos:R:3:initial_magmoms:R:1 pbc="T T T"
Si      -1.05792147       1.97884404      -0.76631746       0.00000000
Si       0.67535082       0.29760201       2.26637473       0.00000000
Si      -1.45280736      -1.80470394      -0.64053250       0.00000000
Si       2.27103777      -0.30986838      -0.88198020       0.00000000
Si       1.48392126      -1.91730042       2.56064450       0.00000000
Si      -0.06289569      -3.61440891      -0.09645471       0.00000000
Si      -0.42811749       2.00935521      -3.05038016       0.00000000
Si       0.24702156       3.68087930       0.41197077       0.00000000
Si       3.26418435      -1.52845812       0.97580935       0.00000000
Si       2.13174198      -1.62359172      -2.84465387       0.00000000
