10
Lattice="16.28999089631971 0.0 0.0 0.0 16.28999089631971 0.0 0.0 0.0 34.54679606040008" Properties=species:S:1:pos:R:3:initial_magmoms:R:1 pbc="T T T"
Si       0.46369485      -2.28705084       0.18734738       0.00000000
Si      -1.16181650       1.03086378      -1.78683038       0.00000000
Si       2.27384942       0.31377798      -0.66975911       0.00000000
Si      -1.01861111       0.85017510       1.99874055       0.00000000
Si       1.71295214      -2.13143247       2.22160206       0.00000000
Si       0.34151171       0.51284178      -3.52467338       0.00000000
Si      -1.57789568      -3.30556680       0.06097513       0.00000000
Si      -3.19228355       1.54764774       1.43901305       0.00000000
Si      -1.09576055       3.39755643      -1.38670917       0.00000000
Si       3.38619578       1.52107875       0.94302442       0.00000000
