10
Lattice="16.28999089631971 0.0 0.0 0.0 16.28999089631971 0.0 0.0 0.0 34.54679606040008" Properties=species:S:1:pos:R:3:initial_magmoms:R:1 pbc="T T T"
Si      -1.78851235       0.29401821      -1.57730395       0.00000000
Si       0.71285692      -2.05861617      -1.17545539       0.00000000
Si       1.75562869       1.80243963       0.11234624       0.00000000
Si      -0.92000186       0.92861145       2.15416667       0.00000000
Si      -1.59014902       2.71544526       0.74676396       0.00000000
Si       2.65495072      -2.28610602       0.16513378       0.00000000
Si       0.38898077       3.55457574      -0.62395003       0.00000000
Si      -3.34362091       1.62795744      -0.36498710       0.00000000
Si      -0.98950414       1.48828698      -3.49883237       0.00000000
Si       1.74205912      -1.49332059      -3.27597086       0.00000000
