10
Lattice="16.28999089631971 0.0 0.0 0.0 16.28999089631971 0.0 0.0 0.0 34.54679606040008" Properties=species:S:1:pos:R:3:initial_magmoms:R:1 pbc="T T T"
Si       0.82940535      -2.08064025      -0.68060681       0.00000000
Si      -1.29513645      -0.40052223       1.91441177       0.00000000
Si       1.35668007       1.77596838       0.72503401       0.00000000
Si      -1.32931287       1.69241697      -1.09361399       0.00000000
Si      -0.74248191       2.92558626       0.94184983       0.00000000
Si       0.72715302      -1.51596369      -3.01369144       0.00000000
Si       2.87305101       0.78190371       2.19140814       0.00000000
Si      -1.99004830       1.78414596       2.57180312       0.00000000
Si      -3.28740508      -1.48511043       1.12881719       0.00000000
Si      -0.98416035      -3.71563497      -0.70396046       0.00000000
