10
Lattice="16.28999089631971 0.0 0.0 0.0 16.28999089631971 0.0 0.0 0.0 34.54679606040008" Properties=species:S:1:pos:R:3:initial_magmoms:R:1 pbc="T T T"
Si      -1.35630540      -1.35767376       1.35813895       0.00000000
Si       1.35902583       1.35775521       1.35800077       0.00000000
Si      -1.35725185       1.36368477      -1.35489155       0.00000000
Si       1.36303317      -1.36179513      -1.36055723       0.00000000
Si      -2.71985075       0.00724905      -2.70476691       0.00000000
Si      -2.71486601       2.71428867       0.00169279       0.00000000
Si      -2.71382682       0.00060273       2.71582880       0.00000000
Si      -2.71384125      -2.71586880       0.00027637       0.00000000
Si       0.00143352      -2.71523349       2.71517241       0.00000000
Si       0.00078192       2.71541399       2.71534514       0.00000000
