10
Lattice="16.28999089631971 0.0 0.0 0.0 16.28999089631971 0.0 0.0 0.0 34.54679606040008" Properties=species:S:1:pos:R:3:initial_magmoms:R:1 pbc="T T T"
Si      -1.35656604      -1.35707103      -1.35741347       0.00000000
Si       1.35832536       1.35845568      -1.35737892       0.00000000
Si       1.36348929      -1.35848826       1.35827714       0.00000000
Si      -1.35899325       1.36088289       1.36245730       0.00000000
Si      -0.01223379      -2.70316260       2.71786706       0.00000000
Si      -2.71292031      -2.71368594      -0.00096731       0.00000000
Si      -2.71430496       0.00048870      -2.71444692       0.00000000
Si       2.71604799      -2.71292031      -0.00048366       0.00000000
Si       0.00087966      -2.71435383      -2.71482694       0.00000000
Si      -2.71407853       2.71583622      -0.00024183       0.00000000
