10
Lattice="16.28999089631971 0.0 0.0 0.0 16.28999089631971 0.0 0.0 0.0 34.54679606040008" Properties=species:S:1:pos:R:3:initial_magmoms:R:1 pbc="T T T"
Si      -1.35605837      -1.35751086      -1.35724074       0.00000000
Si      -1.35634191       1.35969372       1.35882989       0.00000000
Si       1.35948521       1.35812988      -1.35734438       0.00000000
Si       1.36122824      -1.35679410       1.36211184       0.00000000
Si      -2.71958685      -0.00491958       2.69706988       0.00000000
Si      -2.71289166       0.00017919      -2.71489603       0.00000000
Si      -2.71277763       2.71560816      -0.00034547       0.00000000
Si       0.00139768      -2.71480343      -2.71489603       0.00000000
Si       0.00189778       2.71492398      -2.71506877       0.00000000
Si      -2.71551435      -2.71464379      -0.00148551       0.00000000
