10
Lattice="16.28999089631971 0.0 0.0 0.0 16.28999089631971 0.0 0.0 0.0 34.54679606040008" Properties=species:S:1:pos:R:3:initial_magmoms:R:1 pbc="T T T"
Si       1.51829316       1.53197091       1.09126480       0.00000000
Si      -1.21882106       1.36775142      -1.63313160       0.00000000
Si      -1.29069905      -1.37458278       1.75121262       0.00000000
Si       1.48525704      -1.32937803      -1.63413346       0.00000000
Si      -2.63370923      -2.60244153       0.04394355       0.00000000
Si      -2.70514088       2.72376035      -0.27900008       0.00000000
Si      -2.57284979       0.01946567      -3.02339909       0.00000000
Si       2.78695836      -2.82688515      -0.28138381       0.00000000
Si       0.14147865      -2.69347005      -3.02084263       0.00000000
Si       0.14560002       2.73446288      -3.02080808       0.00000000
