10
Lattice="16.28999089631971 0.0 0.0 0.0 16.28999089631971 0.0 0.0 0.0 34.54679606040008" Properties=species:S:1:pos:R:3:initial_magmoms:R:1 pbc="T T T"
Si       0.17181063      -1.76630841       1.57402200       0.00000000
Si      -0.72848880      -0.66823209      -2.19963028       0.00000000
Si       2.41013808       0.18747153       0.00445654       0.00000000
Si      -1.22311836       2.04171434       0.59783264       0.00000000
Si       1.18731294       0.12001578      -3.40683420       0.00000000
Si       0.61432848       3.23756324       1.49743171       0.00000000
Si      -1.68264297      -3.06128196       0.96333795       0.00000000
Si       3.13307199       2.16574640      -0.96544530       0.00000000
Si       3.29388687       0.45287570       2.13710055       0.00000000
Si      -2.95154112       0.06907001      -2.63961852       0.00000000
