10
Lattice="10.86 0.0 0.0 0.0 10.86 0.0 0.0 0.0 10.86" Properties=species:S:1:pos:R:3:initial_magmoms:R:1 pbc="T T T"
Si       1.35254784      -1.29460974      -1.26662352       0.00000000
Si      -1.36245216      -1.29460974       1.44837648       0.00000000
Si       1.35254784       1.42039026       1.44837648       0.00000000
Si      -1.55270850       1.47656904      -1.46716428       0.00000000
Si       2.63559168       0.01227180      -2.55414168       0.00000000
Si      -0.00495216      -2.65210974      -2.62412352       0.00000000
Si       2.71004784      -2.65210974       0.09087648       0.00000000
Si      -2.71995216      -2.65210974       0.09087648       0.00000000
Si       2.72108160       2.73322308       0.12649728       0.00000000
Si      -0.00495216      -2.65210974       2.80587648       0.00000000
