10
Lattice="16.28999089631971 0.0 0.0 0.0 16.28999089631971 0.0 0.0 0.0 34.36671206372826" Properties=species:S:1:pos:R:3:initial_magmoms:R:1 pbc="T T T"
Si       0.46835705       2.11132476       0.77112072       0.00000000
Si       0.97442219      -1.71411525       1.18513673       0.00000000
Si      -2.23792413      -0.38897262       0.59547235       0.00000000
Si       0.37721124      -0.25418916      -2.32422204       0.00000000
Si      -0.51640277      -3.45289356       0.54447212       0.00000000
Si      -3.09722163       1.72967124      -0.08392356       0.00000000
Si      -2.56688439      -2.54099565      -0.35143419       0.00000000
Si      -1.77277947      -0.55690623      -3.15314759       0.00000000
Si       2.48149154       2.71182955      -0.26675457       0.00000000
Si       1.74399437      -2.19758616      -2.41670291       0.00000000
