10
Lattice="16.28999089631971 0.0 0.0 0.0 16.28999089631971 0.0 0.0 0.0 34.36671206372826" Properties=species:S:1:pos:R:3:initial_magmoms:R:1 pbc="T T T"
Si       0.52112736       2.23685550      -0.41600928       0.00000000
Si      -1.52134772      -0.38939616       1.80058100       0.00000000
Si      -1.30317575      -1.19270493      -1.65599531       0.00000000
Si       2.14156371      -1.02504825       0.65116609       0.00000000
Si       1.37790969       2.58233871       1.82034875       0.00000000
Si       2.50318542       1.75445322      -1.59997754       0.00000000
Si      -2.88954482      -1.94914737       0.64420304       0.00000000
Si      -0.03884369      -1.58794920       3.25882327       0.00000000
Si       1.26833500      -2.96232021       1.72665129       0.00000000
Si       3.64368090      -0.28878912      -1.09427109       0.00000000
