10
Lattice="16.28999089631971 0.0 0.0 0.0 16.28999089631971 0.0 0.0 0.0 34.36671206372826" Properties=species:S:1:pos:R:3:initial_magmoms:R:1 pbc="T T T"
Si       1.34942613       1.36604519      -1.36198793       0.00000000
Si      -1.42328566       1.29651947       1.35807012       0.00000000
Si      -1.36928794      -1.34901630      -1.36442796       0.00000000
Si       1.38501978      -1.37066571       1.36009776       0.00000000
Si      -0.02181557      -2.58083352       2.80765884       0.00000000
Si      -2.75357593      -2.67358878       0.00202764       0.00000000
Si       2.70496590       0.00739077      -2.72335725       0.00000000
Si      -0.00966974      -2.70704844      -2.72308232       0.00000000
Si       2.71464216       2.71677941       0.02189161       0.00000000
Si       2.71298058      -2.71928223      -0.00037803       0.00000000
