10
Lattice="16.28999089631971 0.0 0.0 0.0 16.28999089631971 0.0 0.0 0.0 34.36671206372826" Properties=species:S:1:pos:R:3:initial_magmoms:R:1 pbc="T T T"
Si       1.30083795      -1.36756197      -1.33467669       0.00000000
Si       1.37471310       1.31233918       1.35929701       0.00000000
Si      -1.34974053      -1.39404951       1.34895263       0.00000000
Si      -0.79035822       1.90820131      -1.37626387       0.00000000
Si      -0.57401073      -2.34253476      -2.56705770       0.00000000
Si       2.35147779       0.16164779      -2.74372783       0.00000000
Si      -2.66867667       2.67168103      -0.00307239       0.00000000
Si       0.01166364       2.67383131       2.70997828       0.00000000
Si       2.72868903       2.65923547      -0.01164001       0.00000000
Si      -2.70366759      -0.03959865       2.71179972       0.00000000
