10
Lattice="16.28999089631971 0.0 0.0 0.0 16.28999089631971 0.0 0.0 0.0 34.36671206372826" Properties=species:S:1:pos:R:3:initial_magmoms:R:1 pbc="T T T"
Si       1.35570267      -1.35408322       1.36154116       0.00000000
Si      -1.36684503      -1.34127209      -1.36497096       0.00000000
Si      -1.35876519       1.36177395       1.36130059       0.00000000
Si       1.39069359       1.35719646      -1.35333095       0.00000000
Si      -0.01091430       2.70853341      -2.57952561       0.00000000
Si       0.00544086      -2.62605781      -2.73850267       0.00000000
Si       2.70962973      -2.70853408      -0.00130594       0.00000000
Si      -2.71353933      -2.71526185       0.00158087       0.00000000
Si      -0.00172674      -2.71219933       2.71854591       0.00000000
Si       2.70824508       2.72342247       0.00852295       0.00000000
