10
Lattice="16.28999089631971 0.0 0.0 0.0 16.28999089631971 0.0 0.0 0.0 34.36671206372826" Properties=species:S:1:pos:R:3:initial_magmoms:R:1 pbc="T T T"
Si      -1.35640314      -1.35696335      -1.35693602       0.00000000
Si       1.35907470       1.35801911      -1.35686728       0.00000000
Si      -1.35553977       1.35865442       1.36136933       0.00000000
Si       1.35878148      -1.35974544       1.35789829       0.00000000
Si       2.70358614       0.00454654       2.70521162       0.00000000
Si       2.71507059      -2.71289166      -0.00027493       0.00000000
Si      -2.70496590      -0.00739077       2.72335725       0.00000000
Si      -2.71399056       0.00030625      -2.71490304       0.00000000
Si      -2.71463565      -2.71443921       0.00027493       0.00000000
Si       0.00061902      -2.71412970      -2.71514360       0.00000000
