10
Lattice="16.28999089631971 0.0 0.0 0.0 16.28999089631971 0.0 0.0 0.0 34.36671206372826" Properties=species:S:1:pos:R:3:initial_magmoms:R:1 pbc="T T T"
Si       1.34480466       1.36429198       1.34731333       0.00000000
Si       1.35628911      -1.35314622      -1.35817322       0.00000000
Si      -1.35878148       1.35974544      -1.35789829       0.00000000
Si      -1.35076680      -1.36692756       1.36508093       0.00000000
Si      -2.67872760      -0.01831104       2.72555672       0.00000000
Si      -2.71370223      -2.71196028       0.00106537       0.00000000
Si       2.71464705      -2.71187883       0.00704518       0.00000000
Si      -0.00065160      -2.71189512      -2.71469684       0.00000000
Si       2.71474479       0.00341996      -2.71490304       0.00000000
Si      -2.71518462       0.00278209      -2.71483430       0.00000000
