10
Lattice="16.28999089631971 0.0 0.0 0.0 16.28999089631971 0.0 0.0 0.0 34.36671206372826" Properties=species:S:1:pos:R:3:initial_magmoms:R:1 pbc="T T T"
Si      -1.31755149      -1.36622601      -1.36185390       0.00000000
Si      -1.35288450       1.34996859       1.35477091       0.00000000
Si       1.36278882      -1.36407573       1.35119677       0.00000000
Si       1.36014984       1.35360126      -1.37834649       0.00000000
Si       0.56076696      -2.12970573      -2.73504538       0.00000000
Si       2.41341237      -0.31012902      -2.69251655       0.00000000
Si      -2.71915938      -0.01488906      -2.58804856       0.00000000
Si      -2.70531288       2.71137276      -0.00494881       0.00000000
Si      -2.70948312      -0.00488700       2.71101960       0.00000000
Si       0.00413766       2.70961344       2.71177566       0.00000000
