10
Lattice="16.28999089631971 0.0 0.0 0.0 16.28999089631971 0.0 0.0 0.0 34.36671206372826" Properties=species:S:1:pos:R:3:initial_magmoms:R:1 pbc="T T T"
Si       1.35589815      -1.35767376      -1.35463345       0.00000000
Si      -1.35894438       1.35827649      -1.35466781       0.00000000
Si       1.35439947       1.34540739       1.37635322       0.00000000
Si      -1.34949618      -1.36304946       1.39030611       0.00000000
Si      -0.08983935       2.61584820       2.72892466       0.00000000
Si       2.71404432       0.00086337      -2.71208496       0.00000000
Si      -0.00009774      -2.71441899      -2.71181003       0.00000000
Si       2.71480995      -2.71277370       0.00312737       0.00000000
Si      -2.71471221      -2.71378368       0.00642658       0.00000000
Si      -2.71616202       0.00079821      -2.71253173       0.00000000
