10
Lattice="16.28999089631971 0.0 0.0 0.0 16.28999089631971 0.0 0.0 0.0 34.36671206372826" Properties=species:S:1:pos:R:3:initial_magmoms:R:1 pbc="T T T"
Si      -1.84134015      -0.94087782       1.08842875       0.00000000
Si       1.44423882      -1.27044081      -1.35257144       0.00000000
Si      -1.25985231       1.46758239      -1.36893001       0.00000000
Si       2.31234921       0.31499973       1.11568156       0.00000000
Si       0.08983935      -2.61584820      -2.72892466       0.00000000
Si      -2.62620864       0.10088397      -2.72401022       0.00000000
Si       2.76786648       2.60990235       0.17138689       0.00000000
Si      -2.07547632       0.04491153       3.19397527       0.00000000
Si      -2.71774215       2.69959509       0.03223599       0.00000000
Si      -3.64786857       0.77203197       1.11272603       0.00000000
