10
Lattice="16.28999089631971 0.0 0.0 0.0 16.28999089631971 0.0 0.0 0.0 34.36671206372826" Properties=species:S:1:pos:R:3:initial_magmoms:R:1 pbc="T T T"
Si       1.07470017      -1.86738786      -0.95993154       0.00000000
Si       0.92968659      -0.62126802       2.25023046       0.00000000
Si       2.54529621       0.76994685      -0.77359512       0.00000000
Si      -2.28232674       0.95213421       1.72194507       0.00000000
Si      -1.43089731      -2.65061106       0.18465245       0.00000000
Si      -0.29387160       1.19781999       3.04313969       0.00000000
Si      -0.06449211       3.15276660      -1.31205307       0.00000000
Si      -3.25472571       0.28686690      -1.00038118       0.00000000
Si       2.10531960       2.89753488      -0.07746261       0.00000000
Si       0.18464715      -1.64988378      -3.22122809       0.00000000
