10
Lattice="16.28999089631971 0.0 0.0 0.0 16.28999089631971 0.0 0.0 0.0 34.36671206372826" Properties=species:S:1:pos:R:3:initial_magmoms:R:1 pbc="T T T"
Si      -0.95796603       1.70958663      -1.29352940       0.00000000
Si       2.31950052       0.42510384       0.21063370       0.00000000
Si      -0.03337821      -2.30796720      -0.60488884       0.00000000
Si      -1.56771702       0.30846744       1.78480182       0.00000000
Si      -3.04864092       0.60854553      -1.63791841       0.00000000
Si      -0.28396728      -3.19824828       1.67066991       0.00000000
Si      -0.44057934       2.03756949       2.96832331       0.00000000
Si       3.25298268      -0.94848525      -1.49883625       0.00000000
Si      -2.10988080      -1.87647768       2.43869762       0.00000000
Si       0.84725919       3.44294037       1.48539886       0.00000000
