10
Lattice="16.28999089631971 0.0 0.0 0.0 16.28999089631971 0.0 0.0 0.0 34.36671206372826" Properties=species:S:1:pos:R:3:initial_magmoms:R:1 pbc="T T T"
Si      -0.73643832      -1.71747099       1.49221176       0.00000000
Si       1.74299742       0.83054565       1.50871810       0.00000000
Si      -1.74571785       1.78383645       0.21118356       0.00000000
Si      -0.07762185      -0.94408695      -2.45161951       0.00000000
Si      -2.09078892      -0.38680605       2.93137705       0.00000000
Si       2.90507715       2.19929661       0.06653399       0.00000000
Si       0.63096057       2.33176689       2.94351195       0.00000000
Si      -2.53659735      -2.82227508       0.35720063       0.00000000
Si      -3.54530673       0.72071847       1.39253106       0.00000000
Si      -0.83106693       3.54380805       1.56752989       0.00000000
