10
Lattice="16.28999089631971 0.0 0.0 0.0 16.28999089631971 0.0 0.0 0.0 34.36671206372826" Properties=species:S:1:pos:R:3:initial_magmoms:R:1 pbc="T T T"
Si      -1.35702216       1.35716635       1.35820759       0.00000000
Si       1.35742941       1.35811611      -1.35700475       0.00000000
Si       1.35751086      -1.35751086       1.35834505       0.00000000
Si      -1.35827649      -1.35959598      -1.35638615       0.00000000
Si       0.00011403      -2.71218726      -2.71538417       0.00000000
Si      -2.71181259      -0.00306252      -2.71696504       0.00000000
Si      -2.71460958       2.71443595       0.00024057       0.00000000
Si      -0.00061902       2.71412970       2.71514360       0.00000000
Si       2.71445157       0.00123804       2.71486867       0.00000000
Si       2.71461447      -2.71479366       0.00065297       0.00000000
