10
Lattice="16.28999089631971 0.0 0.0 0.0 16.28999089631971 0.0 0.0 0.0 34.36671206372826" Properties=species:S:1:pos:R:3:initial_magmoms:R:1 pbc="T T T"
Si      -1.19943270       1.26428319       1.60499508       0.00000000
Si       1.04671395      -2.09204325       0.39030297       0.00000000
Si       1.34324082       1.39716367      -1.39927583       0.00000000
Si      -1.66063518      -0.24148296      -1.74380231       0.00000000
Si       1.98576729      -2.04019218      -1.81940912       0.00000000
Si      -1.23308784       3.27613796       0.30297710       0.00000000
Si      -0.18404442      -1.78496046      -3.05399957       0.00000000
Si       3.47224608       0.74207466      -0.70761100       0.00000000
Si       3.33910791       0.42635817       1.63262594       0.00000000
Si       0.94042170       3.62215385      -0.60317050       0.00000000
