10
Lattice="16.28999089631971 0.0 0.0 0.0 16.28999089631971 0.0 0.0 0.0 34.36671206372826" Properties=species:S:1:pos:R:3:initial_magmoms:R:1 pbc="T T T"
Si       1.59633855       1.70321302       0.18073464       0.00000000
Si      -0.17863614      -0.26397945      -2.34865678       0.00000000
Si       1.37642355      -1.84433751       0.60351417       0.00000000
Si      -2.03004351       0.44733010       1.26964452       0.00000000
Si       3.24418608       0.67886687      -1.17441431       0.00000000
Si       2.17150587       1.31152649       2.44584590       0.00000000
Si      -0.90753219      -2.55552633      -2.46533183       0.00000000
Si       0.62579664      -3.51595215      -0.83384000       0.00000000
Si       0.67486212      -2.31953310       2.80418780       0.00000000
Si       0.60748668       3.62135564      -0.70417432       0.00000000
