10
Lattice="16.28999089631971 0.0 0.0 0.0 16.28999089631971 0.0 0.0 0.0 34.36671206372826" Properties=species:S:1:pos:R:3:initial_magmoms:R:1 pbc="T T T"
Si      -0.75062691      -1.67161464      -1.43735417       0.00000000
Si      -0.70156143      -0.47519559       2.20067364       0.00000000
Si      -1.37642355       1.84433751      -0.60351417       0.00000000
Si       2.27286225       0.68639544      -0.38741616       0.00000000
Si       0.21991500       3.54755053      -0.42277953       0.00000000
Si      -2.19281319      -2.84851827      -0.03391996       0.00000000
Si       1.86776253       2.52320438      -1.77792848       0.00000000
Si       1.17472077      -3.04271136      -1.69211475       0.00000000
Si       2.75178825       1.84239900       1.60399845       0.00000000
Si      -1.55505969       1.58035806      -2.95217095       0.00000000
