10
Lattice="16.28999089631971 0.0 0.0 0.0 16.28999089631971 0.0 0.0 0.0 34.36671206372826" Properties=species:S:1:pos:R:3:initial_magmoms:R:1 pbc="T T T"
Si       1.14077241       1.85678307       0.87325864       0.00000000
Si      -2.15978359       0.87583185      -0.50563772       0.00000000
Si       1.42511436      -0.53273187      -1.84006353       0.00000000
Si      -0.83424348      -1.72691919       1.48282135       0.00000000
Si       0.61095645       1.51158168       3.10548094       0.00000000
Si       2.41396623      -2.45087448      -0.95515456       0.00000000
Si      -2.81160676      -0.70358139       2.41484711       0.00000000
Si      -0.23855076       3.75020235       0.58186313       0.00000000
Si      -2.87052606       0.02860524      -2.55588817       0.00000000
Si      -2.01866332       3.18116007      -0.84174435       0.00000000
