10
Lattice="16.28999089631971 0.0 0.0 0.0 16.28999089631971 0.0 0.0 0.0 34.36671206372826" Properties=species:S:1:pos:R:3:initial_magmoms:R:1 pbc="T T T"
Si      -1.35397593      -1.34689630       1.37093702       0.00000000
Si       1.35423657       1.37590227       1.36698485       0.00000000
Si      -1.66640184       1.06854255      -1.32209503       0.00000000
Si       1.41191946      -1.31233055      -1.50853111       0.00000000
Si       0.08772165       2.00122650      -2.70992127       0.00000000
Si       2.18613429       0.57352203      -2.73497462       0.00000000
Si      -0.37721124      -2.49758769      -2.73208782       0.00000000
Si      -2.72868903      -2.65923547       0.01164001       0.00000000
Si       2.71922454      -2.69890181      -0.02368555       0.00000000
Si      -0.00537570      -2.69817511       2.72553610       0.00000000
