10
Lattice="16.28999089631971 0.0 0.0 0.0 16.28999089631971 0.0 0.0 0.0 34.36671206372826" Properties=species:S:1:pos:R:3:initial_magmoms:R:1 pbc="T T T"
Si       0.37817235       1.97983822       1.34906604       0.00000000
Si      -0.75255239      -1.92450730       1.28263514       0.00000000
Si       2.03004351      -0.44733010      -1.26964452       0.00000000
Si      -1.93654054       0.25351036      -1.46268245       0.00000000
Si      -2.90254310      -2.22722437       0.45370959       0.00000000
Si       1.35172791       1.04151141       3.34010261       0.00000000
Si      -2.60282339      -1.99838245      -1.83635192       0.00000000
Si       1.21241583       3.70675741      -0.13375532       0.00000000
Si       2.93008230      -0.58123390       2.58894897       0.00000000
Si      -1.46086765       1.50800814      -3.35721724       0.00000000
