10
Lattice="16.28999089631971 0.0 0.0 0.0 16.28999089631971 0.0 0.0 0.0 34.36671206372826" Properties=species:S:1:pos:R:3:initial_magmoms:R:1 pbc="T T T"
Si       1.35575154       1.35684297       1.35714222       0.00000000
Si      -1.35664749       1.35707103      -1.35662672       0.00000000
Si      -1.35806472      -1.35706940       1.35738278       0.00000000
Si       1.35728280      -1.35877008      -1.35679855       0.00000000
Si      -0.00329058      -2.71400899      -2.71273793       0.00000000
Si      -0.00035838       2.71288773      -2.71476557       0.00000000
Si      -0.00143352       2.71191033       2.71672447       0.00000000
Si       2.71329498       0.00013032      -2.71603714       0.00000000
Si       2.71482624       2.71466334       0.00006873       0.00000000
Si      -2.71433754       0.00100998       2.71538417       0.00000000
