10
Lattice="16.28999089631971 0.0 0.0 0.0 16.28999089631971 0.0 0.0 0.0 34.36671206372826" Properties=species:S:1:pos:R:3:initial_magmoms:R:1 pbc="T T T"
Si      -1.35672894      -1.35791050      -1.35707348       0.00000000
Si      -1.35627282       1.35807938       1.35800139       0.00000000
Si       1.35806472       1.35706940      -1.35738278       0.00000000
Si       1.35842310      -1.36185035       1.36044142       0.00000000
Si       2.71381626       2.71391237      -0.00024057       0.00000000
Si       0.00141723       2.71414043      -2.71400950       0.00000000
Si      -2.71518462       2.71317932       0.00024057       0.00000000
Si      -2.71420722      -0.00074445      -2.71469684       0.00000000
Si       0.01169622       2.71080098       2.71809914       0.00000000
Si       2.71534752      -0.00170068      -2.71418134       0.00000000
