10
Lattice="16.28999089631971 0.0 0.0 0.0 16.28999089631971 0.0 0.0 0.0 34.36671206372826" Properties=species:S:1:pos:R:3:initial_magmoms:R:1 pbc="T T T"
Si      -0.36346248      -0.91908832       2.10204112       0.00000000
Si      -1.22968323      -0.70818006      -1.85848409       0.00000000
Si      -0.80518212       2.16076424       0.54832120       0.00000000
Si       2.14801569      -0.41287820      -0.93357225       0.00000000
Si      -1.77474663       2.77139489      -1.55791266       0.00000000
Si      -1.16678754       1.17995963      -3.26597357       0.00000000
Si       1.15191477       3.13257677       1.52254930       0.00000000
Si      -3.39086124      -1.21782411      -1.11733117       0.00000000
Si       1.06916157      -2.73210734       2.41659981       0.00000000
Si       3.70941219      -0.21016869       0.81036752       0.00000000
