10
Lattice="16.28999089631971 0.0 0.0 0.0 16.28999089631971 0.0 0.0 0.0 34.36671206372826" Properties=species:S:1:pos:R:3:initial_magmoms:R:1 pbc="T T T"
Si       0.25177824       2.10194757       0.99952201       0.00000000
Si      -1.64771721       0.68035185      -1.52292733       0.00000000
Si       2.07008433      -0.16663041      -1.16723166       0.00000000
Si      -1.51438356      -1.08010682       1.71081025       0.00000000
Si       0.71221509       3.15358110      -1.11502860       0.00000000
Si       3.18650319      -1.66890561       0.24623763       0.00000000
Si      -3.05248536       1.91966247      -0.03175486       0.00000000
Si      -0.40612599       2.10937581      -2.93278811       0.00000000
Si       0.11937312      -2.60629316       2.59943082       0.00000000
Si      -2.08269279      -3.07125863       0.40783000       0.00000000
