10
Lattice="16.28999089631971 0.0 0.0 0.0 16.28999089631971 0.0 0.0 0.0 34.36671206372826" Properties=species:S:1:pos:R:3:initial_magmoms:R:1 pbc="T T T"
Si       1.35628911       1.35581670      -1.35813885       0.00000000
Si       1.35664749      -1.35707103       1.35662672       0.00000000
Si      -1.35845568       1.35757602       1.35679855       0.00000000
Si      -1.35829278      -1.35830907      -1.36002902       0.00000000
Si       2.71239903      -0.00022806       2.71376893       0.00000000
Si       2.71296918       0.00299736      -2.71466247       0.00000000
Si      -0.00141723      -2.71414043       2.71400950       0.00000000
Si       2.71453302       2.71451673      -0.00010310       0.00000000
Si      -0.00099369       2.71479366       2.71438754       0.00000000
Si       2.71393029      -2.71584111      -0.00017183       0.00000000
