10
Lattice="16.28999089631971 0.0 0.0 0.0 16.28999089631971 0.0 0.0 0.0 34.36671206372826" Properties=species:S:1:pos:R:3:initial_magmoms:R:1 pbc="T T T"
Si       1.34824185       1.34690607       1.36889564       0.00000000
Si      -1.35997065       1.35443205      -1.35480528       0.00000000
Si       1.35689184      -1.36013355      -1.35363681       0.00000000
Si      -1.36021500      -1.37280717       1.37721239       0.00000000
Si       2.62925487      -0.14597469       2.69524527       0.00000000
Si      -0.00047241       2.71225242      -2.71022916       0.00000000
Si      -0.03658734       2.50753599       2.90117072       0.00000000
Si      -2.71182888       2.71235016       0.00264624       0.00000000
Si       2.71399545      -0.00154755      -2.71132890       0.00000000
Si      -2.71564074      -0.00156384      -2.71126016       0.00000000
