10
Lattice="16.28999089631971 0.0 0.0 0.0 16.28999089631971 0.0 0.0 0.0 34.36671206372826" Properties=species:S:1:pos:R:3:initial_magmoms:R:1 pbc="T T T"
Si      -1.45792242       1.20860397       1.34793193       0.00000000
Si       1.33757190       1.35738054      -1.34215832       0.00000000
Si       1.34974053      -1.30551318       1.39666396       0.00000000
Si      -1.37407779      -1.36550925      -1.34198649       0.00000000
Si      -0.57013371      -2.14523010       2.54712465       0.00000000
Si      -2.30244489      -0.36287604       2.90079269       0.00000000
Si       2.69977428      -0.00656487      -2.70029718       0.00000000
Si       2.69612532       2.71011843       0.05130953       0.00000000
Si      -0.01534518       2.70878265      -2.70301215       0.00000000
Si       2.69052156      -2.72595231       0.02151357       0.00000000
