10
Lattice="16.28999089631971 0.0 0.0 0.0 16.28999089631971 0.0 0.0 0.0 34.36671206372826" Properties=species:S:1:pos:R:3:initial_magmoms:R:1 pbc="T T T"
Si       0.08614152       1.14616440       2.02567824       0.00000000
Si      -1.74017925       0.61056549      -1.47718521       0.00000000
Si      -0.67785948      -2.17986264       0.62293137       0.00000000
Si       1.75998789       1.12454757      -1.15379427       0.00000000
Si       0.72669690       3.27033153      -1.06323793       0.00000000
Si       0.54781641       3.34441845       1.34164282       0.00000000
Si      -3.61048302      -0.44989722      -0.49553390       0.00000000
Si       1.40703246       0.44043273      -3.38670390       0.00000000
Si      -3.00255651      -1.78660575       1.30432055       0.00000000
Si      -0.96534540      -0.11359017      -3.64466058       0.00000000
