10
Lattice="16.28999089631971 0.0 0.0 0.0 16.28999089631971 0.0 0.0 0.0 34.36671206372826" Properties=species:S:1:pos:R:3:initial_magmoms:R:1 pbc="T T T"
Si      -1.14711478       1.47773106      -1.38748804       0.00000000
Si      -0.98861308      -1.24168896       1.75483403       0.00000000
Si       1.13751604       1.74202002       1.13351790       0.00000000
Si       1.97736328      -1.02333780      -0.93202575       0.00000000
Si       0.65182317       1.57941324      -2.92048482       0.00000000
Si       0.93778435      -2.56216939       2.09688611       0.00000000
Si       2.95091884      -1.96166461       1.05901082       0.00000000
Si       2.81160676       0.70358139      -2.41484711       0.00000000
Si       1.07668918       1.36166481       3.57496485       0.00000000
Si      -2.79330073       0.66026628      -2.78844784       0.00000000
