10
Lattice="16.28999089631971 0.0 0.0 0.0 16.28999089631971 0.0 0.0 0.0 34.36671206372826" Properties=species:S:1:pos:R:3:initial_magmoms:R:1 pbc="T T T"
Si      -0.19036494       1.17706653       2.06093851       0.00000000
Si       1.78875603       1.06187994      -1.18087525       0.00000000
Si      -1.95032025       0.61219449      -1.24727178       0.00000000
Si       0.21234015      -2.35265067       0.43044331       0.00000000
Si       0.78578073       3.17519793      -1.33026743       0.00000000
Si       1.60770897       0.26469621       3.29192045       0.00000000
Si      -1.48864536       2.81044854      -1.93130720       0.00000000
Si      -1.74475674      -3.32446320      -0.54378479       0.00000000
Si      -2.27778183       0.61942725       3.01987341       0.00000000
Si      -2.03646177      -0.53396991      -3.27295002       0.00000000
