10
Lattice="16.28999089631971 0.0 0.0 0.0 16.28999089631971 0.0 0.0 0.0 34.36671206372826" Properties=species:S:1:pos:R:3:initial_magmoms:R:1 pbc="T T T"
Si      -1.56682107       1.42126992      -1.02467846       0.00000000
Si      -1.24159122      -1.42902396       1.40986078       0.00000000
Si       1.11834108       1.04420529       1.81775952       0.00000000
Si       1.67321106      -0.53699985      -1.75125989       0.00000000
Si       3.18801816      -0.01487277       1.51715372       0.00000000
Si      -1.62105048       0.46688769      -3.17610457       0.00000000
Si       0.40612599      -2.10937581       2.93278811       0.00000000
Si       3.63030795       0.43481268      -0.77703179       0.00000000
Si       2.47621032      -2.27600622       1.76555645       0.00000000
Si      -1.98514827      -3.28292859       0.20334795       0.00000000
