10
Lattice="16.28999089631971 0.0 0.0 0.0 16.28999089631971 0.0 0.0 0.0 34.36671206372826" Properties=species:S:1:pos:R:3:initial_magmoms:R:1 pbc="T T T"
Si      -2.06967708       1.05907806       0.30060580       0.00000000
Si       1.01322171       1.20552516       1.76363192       0.00000000
Si       0.44228979       0.44968545      -2.29418551       0.00000000
Si      -0.71180784      -2.26113345       0.24840273       0.00000000
Si      -2.53011393       0.00744453       2.41515641       0.00000000
Si      -3.18801816       0.01487277      -1.51715372       0.00000000
Si       1.83765861       3.06703233       0.56729163       0.00000000
Si      -1.51480710      -0.52212708      -3.26841361       0.00000000
Si      -2.78189217      -2.09450304       1.41563439       0.00000000
Si       0.22994964       2.80233612      -2.72462882       0.00000000
