10
Lattice="16.28999089631971 0.0 0.0 0.0 16.28999089631971 0.0 0.0 0.0 34.36671206372826" Properties=species:S:1:pos:R:3:initial_magmoms:R:1 pbc="T T T"
Si       2.06967708      -1.05907806      -0.30060580       0.00000000
Si       0.02184489       2.36268531      -0.00536121       0.00000000
Si      -1.11834108      -1.04420529      -1.81775952       0.00000000
Si      -0.46043685      -1.05163353       2.11455061       0.00000000
Si       3.08289879       0.14644710       1.46302612       0.00000000
Si      -0.71221509      -3.15358110       1.11502860       0.00000000
Si      -2.35993230      -2.47322925      -0.40789873       0.00000000
Si       1.35786924      -3.32021151      -0.05220306       0.00000000
Si      -0.04085532       2.81649213       2.31088774       0.00000000
Si       2.51196687      -0.60939261      -2.59479131       0.00000000
