10
Lattice="16.28999089631971 0.0 0.0 0.0 16.28999089631971 0.0 0.0 0.0 34.36671206372826" Properties=species:S:1:pos:R:3:initial_magmoms:R:1 pbc="T T T"
Si       1.16207973       1.36875096      -1.44218411       0.00000000
Si      -1.11203685       1.50122124       1.43479385       0.00000000
Si       1.58315994      -1.21793814       1.40792594       0.00000000
Si      -1.74299742      -0.83054565      -1.50871810       0.00000000
Si      -2.47943574      -2.54801664      -0.01650634       0.00000000
Si       2.66602140       2.60253927       0.01535506       0.00000000
Si      -2.47796964       0.14933043       2.79198418       0.00000000
Si      -2.57406435       2.71326240       0.05881179       0.00000000
Si       0.24381243      -2.56792302       2.78834130       0.00000000
Si      -3.48871527       0.95329080      -1.29753454       0.00000000
