10
Lattice="16.28999089631971 0.0 0.0 0.0 16.28999089631971 0.0 0.0 0.0 34.36671206372826" Properties=species:S:1:pos:R:3:initial_magmoms:R:1 pbc="T T T"
Si      -1.34824185      -1.34690607      -1.36889564       0.00000000
Si       1.36941885       1.36677987      -1.36171299       0.00000000
Si      -1.38482919       1.16062992       1.53227508       0.00000000
Si       1.28101302      -1.49288076       1.32634963       0.00000000
Si      -1.84034646      -1.13427270       2.47656976       0.00000000
Si       0.52191531       2.04713172       2.66575861       0.00000000
Si       2.29190526       0.20217519       2.62403740       0.00000000
Si      -2.70845685      -2.71971324       0.00831675       0.00000000
Si      -2.71661814       2.71226871       0.03292333       0.00000000
Si       0.00864999      -2.70703962      -2.72253245       0.00000000
