10
Lattice="16.28999089631971 0.0 0.0 0.0 16.28999089631971 0.0 0.0 0.0 34.36671206372826" Properties=species:S:1:pos:R:3:initial_magmoms:R:1 pbc="T T T"
Si       1.03329099      -2.14578396      -0.09055634       0.00000000
Si       1.39025376       1.96222824      -0.16238281       0.00000000
Si      -0.17888049       0.07408692       2.40488075       0.00000000
Si      -2.21293134      -0.33637221      -0.91690439       0.00000000
Si      -0.72669690      -3.27033153       1.06323793       0.00000000
Si      -0.30556782       3.45717783       0.56478286       0.00000000
Si      -2.46687615      -2.65976604      -0.41394728       0.00000000
Si       2.09554560       0.43883631       3.00592052       0.00000000
Si       0.68033556      -2.82989880      -2.32346597       0.00000000
Si      -3.43648953       1.48271580      -0.12399517       0.00000000
