10
Lattice="16.28999089631971 0.0 0.0 0.0 16.28999089631971 0.0 0.0 0.0 34.36671206372826" Properties=species:S:1:pos:R:3:initial_magmoms:R:1 pbc="T T T"
Si      -1.22355819       1.81908801       0.79290922       0.00000000
Si      -0.25394481      -2.32339383       0.50295711       0.00000000
Si       2.21293134       0.33637221       0.91690439       0.00000000
Si      -0.92968659       0.62126802      -2.25023046       0.00000000
Si       0.14501358      -1.24611984      -3.21016200       0.00000000
Si       0.23657967       3.46695183      -0.11798099       0.00000000
Si       0.52088904      -3.04754949      -1.66451826       0.00000000
Si      -3.21201333       1.57340223      -0.52828539       0.00000000
Si       1.61560962       1.39121487      -3.02382558       0.00000000
Si      -2.36058390      -2.02934304      -2.06557802       0.00000000
