10
Lattice="16.28999089631971 0.0 0.0 0.0 16.28999089631971 0.0 0.0 0.0 34.36671206372826" Properties=species:S:1:pos:R:3:initial_magmoms:R:1 pbc="T T T"
Si       0.86806152       2.03919849      -0.64685062       0.00000000
Si       1.48717926      -1.47979989      -1.10554338       0.00000000
Si       0.28701351      -0.35978094       2.38962193       0.00000000
Si      -2.04765300      -0.26922483      -1.29785961       0.00000000
Si      -0.94951152       3.45988197       0.00683898       0.00000000
Si      -0.84942576      -2.40503931       2.58582159       0.00000000
Si      -1.11640257      -3.54630042       0.54625919       0.00000000
Si       1.36049193       1.90329102      -2.94564127       0.00000000
Si      -2.82188412      -2.42742177      -0.69664801       0.00000000
Si       1.02550437      -3.67805394      -0.42150796       0.00000000
