10
Lattice="16.28999089631971 0.0 0.0 0.0 16.28999089631971 0.0 0.0 0.0 34.36671206372826" Properties=species:S:1:pos:R:3:initial_magmoms:R:1 pbc="T T T"
Si       2.13917022       0.95175954      -0.37820588       0.00000000
Si       0.97350669      -1.94763240       0.99880031       0.00000000
Si      -1.11930219       0.14866254      -2.13084044       0.00000000
Si      -1.50622227       1.41136560       1.38068343       0.00000000
Si      -0.72796752       2.46927078      -2.26366786       0.00000000
Si       1.65152907       2.63124225      -1.92677079       0.00000000
Si       3.31257150      -0.77801040      -1.43158056       0.00000000
Si       1.00688490      -1.41913593       3.37601585       0.00000000
Si      -0.38947761       3.63146454       1.33552554       0.00000000
Si      -0.18582003      -1.22492655      -3.84031039       0.00000000
