10
Lattice="16.28999089631971 0.0 0.0 0.0 16.28999089631971 0.0 0.0 0.0 34.36671206372826" Properties=species:S:1:pos:R:3:initial_magmoms:R:1 pbc="T T T"
Si       1.67633874       1.61070374      -0.03044892       0.00000000
Si      -2.12900526       0.65508901      -0.69166483       0.00000000
Si       0.72324342      -1.75777245      -1.39425829       0.00000000
Si      -0.13313817      -0.31571649       2.34023693       0.00000000
Si      -1.48647879      -2.78226684      -1.11179812       0.00000000
Si       3.40550595       0.32197185       1.07066115       0.00000000
Si      -3.47224608      -0.74207466       0.70761100       0.00000000
Si       2.10623184      -0.17283690       2.99231129       0.00000000
Si      -0.75474828      -2.50751970       2.69758220       0.00000000
Si      -2.53182438       2.88007919       0.10444050       0.00000000
