10
Lattice="16.28999089631971 0.0 0.0 0.0 16.28999089631971 0.0 0.0 0.0 34.36671206372826" Properties=species:S:1:pos:R:3:initial_magmoms:R:1 pbc="T T T"
Si       0.76747077      -1.99575306       0.96711418       0.00000000
Si       0.04056210       1.47090555       1.83827646       0.00000000
Si      -2.19678795      -0.27230364      -0.95883180       0.00000000
Si       1.78843023       0.10603161      -1.66936397       0.00000000
Si       0.69675588      -3.42655263      -0.81648480       0.00000000
Si      -1.70435754      -0.40821111      -3.25762246       0.00000000
Si       1.15662258       1.92647169      -2.96289337       0.00000000
Si       1.77616386      -2.17598562      -2.47206771       0.00000000
Si       2.24697744       2.31888150       1.92663332       0.00000000
Si       2.98755342      -1.65077973       1.66049735       0.00000000
