10
Lattice="16.28999089631971 0.0 0.0 0.0 16.28999089631971 0.0 0.0 0.0 34.36671206372826" Properties=species:S:1:pos:R:3:initial_magmoms:R:1 pbc="T T T"
Si       1.34306163       1.35309627      -1.35381208       0.00000000
Si      -1.35668007       1.35281934       1.35652362       0.00000000
Si       1.35697329      -1.35993807       1.35525205       0.00000000
Si      -1.35423657      -1.37590227      -1.36698485       0.00000000
Si      -0.12917970       2.56342698      -2.78967817       0.00000000
Si       2.62145196      -0.01697418      -2.75557263       0.00000000
Si      -2.70959715       2.71277370      -0.00329921       0.00000000
Si       0.00156384       2.71151937       2.71455937       0.00000000
Si       2.71479366       2.71225242      -0.00494881       0.00000000
Si      -2.71296918      -0.00299736       2.71466247       0.00000000
