10
Lattice="16.28999089631971 0.0 0.0 0.0 16.28999089631971 0.0 0.0 0.0 34.36671206372826" Properties=species:S:1:pos:R:3:initial_magmoms:R:1 pbc="T T T"
Si      -1.20435228       1.34952563      -1.61458340       0.00000000
Si       1.51409034       1.43014972       1.34896294       0.00000000
Si      -0.75090384      -1.92517392       1.38721311       0.00000000
Si       1.48133115      -1.32553902      -1.62475595       0.00000000
Si      -2.47977783       2.73953992      -0.20530685       0.00000000
Si      -2.51638146      -2.77176522      -0.00938212       0.00000000
Si       2.79463095      -2.58327363      -0.18977309       0.00000000
Si       2.81162142       2.64456922      -0.26871347       0.00000000
Si      -2.56143960      -0.00482481      -2.98963069       0.00000000
Si       1.26372933      -3.52029072       1.40518691       0.00000000
