10
Lattice="16.28999089631971 0.0 0.0 0.0 16.28999089631971 0.0 0.0 0.0 34.36671206372826" Properties=species:S:1:pos:R:3:initial_magmoms:R:1 pbc="T T T"
Si       1.35809730      -1.35663120      -1.35655798       0.00000000
Si      -1.35713456       1.35785295      -1.35679855       0.00000000
Si       1.35721764       1.35747828       1.35786392       0.00000000
Si      -1.35872284      -1.35682668       1.35755462       0.00000000
Si      -2.71511919       0.00144981       2.71033226       0.00000000
Si       2.71469592      -0.00177561      -2.71280667       0.00000000
Si       0.00057015      -2.71339272      -2.71479994       0.00000000
Si       2.71616202      -0.00079821       2.71253173       0.00000000
Si      -2.71522383      -0.00009774      -2.71352837       0.00000000
Si      -2.71433933      -2.71467963       0.00034367       0.00000000
