10
Lattice="16.28999089631971 0.0 0.0 0.0 16.28999089631971 0.0 0.0 0.0 34.36671206372826" Properties=species:S:1:pos:R:3:initial_magmoms:R:1 pbc="T T T"
Si       1.29753108       1.21441950      -1.61767641       0.00000000
Si      -0.82583784       0.87534315       2.10444679       0.00000000
Si      -1.51409034      -1.43014972      -1.34896294       0.00000000
Si       2.08597101      -0.74632635       1.16272962       0.00000000
Si      -1.82184102       2.84320773       1.31762048       0.00000000
Si       2.23964272       2.88611559      -0.37157310       0.00000000
Si       2.69900118      -2.66293349      -0.16808768       0.00000000
Si       3.67037225       1.20633966       0.82060881       0.00000000
Si      -0.01272249       2.63541249      -2.97619329       0.00000000
Si      -2.71844262      -0.08062410      -2.96354634       0.00000000
