10
Lattice="16.28999089631971 0.0 0.0 0.0 16.28999089631971 0.0 0.0 0.0 34.36671206372826" Properties=species:S:1:pos:R:3:initial_magmoms:R:1 pbc="T T T"
Si       1.59610464      -0.19247287       1.69833513       0.00000000
Si      -1.08343161      -2.03285258      -0.57739545       0.00000000
Si      -1.84344156       0.94784994       1.16881253       0.00000000
Si       0.38537253       1.67011596      -1.71514046       0.00000000
Si      -2.81259882      -0.74412068      -1.67850552       0.00000000
Si       1.39886207       2.03488164       2.36590888       0.00000000
Si      -1.43940069       0.55224729      -3.29961860       0.00000000
Si      -0.84668904       2.69338860       2.31264045       0.00000000
Si       3.58032113      -0.67851271       0.58255046       0.00000000
Si      -2.38270572      -2.52766133       1.34425469       0.00000000
