10
Lattice="16.28999089631971 0.0 0.0 0.0 16.28999089631971 0.0 0.0 0.0 34.36671206372826" Properties=species:S:1:pos:R:3:initial_magmoms:R:1 pbc="T T T"
Si       0.75448764      -0.32364972       2.21121911       0.00000000
Si      -1.01546973      -2.20418361      -0.19083846       0.00000000
Si      -1.78900038       1.68578694       0.05007233       0.00000000
Si       1.76028341       1.51874928      -1.19266304       0.00000000
Si      -1.02734514       1.42265457       2.29222356       0.00000000
Si      -0.54235926       2.41380333      -1.93409090       0.00000000
Si      -2.25704466      -0.84916512      -2.43117130       0.00000000
Si       1.10154609      -3.35642418      -0.47591049       0.00000000
Si      -3.53022219       0.52147548      -0.94374481       0.00000000
Si       3.12250697      -1.82210166      -0.82875372       0.00000000
