10
Lattice="16.28999089631971 0.0 0.0 0.0 16.28999089631971 0.0 0.0 0.0 34.36671206372826" Properties=species:S:1:pos:R:3:initial_magmoms:R:1 pbc="T T T"
Si       1.35291708      -1.35140211       1.36085382       0.00000000
Si      -1.35783666      -1.35575154      -1.35563008       0.00000000
Si       1.35731538       1.35927018      -1.35552698       0.00000000
Si      -1.35417141       1.35948195       1.36288146       0.00000000
Si       0.01534518      -2.70878265       2.70301215       0.00000000
Si       0.00058644      -2.71461447      -2.71242863       0.00000000
Si      -2.71508688       0.00091224      -2.71290977       0.00000000
Si       2.71516833       0.00130320      -2.71301287       0.00000000
Si       2.71363707       2.71500543       0.00230257       0.00000000
Si      -2.71494027      -2.71433754       0.00206200       0.00000000
