10
Lattice="16.28999089631971 0.0 0.0 0.0 16.28999089631971 0.0 0.0 0.0 34.36671206372826" Properties=species:S:1:pos:R:3:initial_magmoms:R:1 pbc="T T T"
Si      -1.35855342      -1.35273789      -1.39346785       0.00000000
Si       1.36314060       1.35873261      -1.39343349       0.00000000
Si       1.12151763      -1.60671528       1.43240536       0.00000000
Si      -1.25371098       1.48541994       1.52540173       0.00000000
Si      -2.69612532      -2.71011843      -0.05130953       0.00000000
Si       2.70087127      -2.71070487      -0.04285531       0.00000000
Si       2.70114168       2.71567332      -0.01271569       0.00000000
Si      -2.70728397       2.72020194      -0.00835112       0.00000000
Si       0.00216657       2.71366965      -2.75201911       0.00000000
Si      -2.71147050      -0.00133578      -2.75432168       0.00000000
