10
Lattice="16.28999089631971 0.0 0.0 0.0 16.28999089631971 0.0 0.0 0.0 34.36671206372826" Properties=species:S:1:pos:R:3:initial_magmoms:R:1 pbc="T T T"
Si      -0.07071489      -1.43079957      -1.78359899       0.00000000
Si      -1.24628274      -1.06337862       1.62499652       0.00000000
Si      -0.76747077       1.99575306      -0.96711418       0.00000000
Si       2.22008265       0.34497333       0.69338317       0.00000000
Si       1.02095946       2.10178467      -2.63647816       0.00000000
Si      -0.04691520      -0.22861386       3.51925638       0.00000000
Si       1.00869309      -0.18023256      -3.43918190       0.00000000
Si      -0.72690867       3.46665861       0.87116227       0.00000000
Si       2.13218181       0.53809128       3.03671311       0.00000000
Si      -3.54530673      -0.67553001       1.11052655       0.00000000
