10
Lattice="16.28999089631971 0.0 0.0 0.0 16.28999089631971 0.0 0.0 0.0 34.36671206372826" Properties=species:S:1:pos:R:3:initial_magmoms:R:1 pbc="T T T"
Si       0.70620408       2.17720737      -0.45838346       0.00000000
Si      -2.22008265      -0.34497333      -0.69338317       0.00000000
Si      -0.08790084       0.19311795       2.34332994       0.00000000
Si       1.59898472      -1.65007926      -0.66630219       0.00000000
Si       3.08986181      -1.40530572       1.26957579       0.00000000
Si      -2.26699785      -0.57358719       2.82587321       0.00000000
Si       1.00592379       2.40604929      -2.74844497       0.00000000
Si      -2.98755342       1.65077973      -1.66049735       0.00000000
Si       2.85619479       2.47992444       0.37054210       0.00000000
Si      -2.29079754      -1.77577290      -2.47698216       0.00000000
