10
Lattice="16.28999089631971 0.0 0.0 0.0 16.28999089631971 0.0 0.0 0.0 34.36671206372826" Properties=species:S:1:pos:R:3:initial_magmoms:R:1 pbc="T T T"
Si       0.25920648      -2.30394357       0.71403758       0.00000000
Si       1.50584760      -1.57592718      -1.27012565       0.00000000
Si      -2.52159426      -0.03432303       0.14750201       0.00000000
Si       1.65872925       1.48317192       1.22063756       0.00000000
Si      -0.18252945       1.13529897      -2.28287886       0.00000000
Si      -1.35593073       2.86506891      -1.22950418       0.00000000
Si      -2.48821605       0.49417344       2.52471755       0.00000000
Si      -1.48201533      -3.46825503      -0.27977956       0.00000000
Si       1.99656756       1.90200411      -2.76542213       0.00000000
Si      -0.32534388       3.91807080       0.66733319       0.00000000
