10
Lattice="16.28999089631971 0.0 0.0 0.0 16.28999089631971 0.0 0.0 0.0 34.36671206372826" Properties=species:S:1:pos:R:3:initial_magmoms:R:1 pbc="T T T"
Si      -1.35632169      -1.35573525      -1.35782955       0.00000000
Si      -1.35788553       1.35946566       1.35483965       0.00000000
Si       1.36097403      -1.35493704       1.35858562       0.00000000
Si       1.35911494       1.35835794      -1.35772645       0.00000000
Si      -2.71055826       2.71762812      -0.00044677       0.00000000
Si      -2.71324611       0.00144981      -2.71531544       0.00000000
Si      -2.71363707      -2.71500543      -0.00230257       0.00000000
Si       0.00153126      -2.71370223      -2.71531544       0.00000000
Si       2.71618061      -2.71443528      -0.00068733       0.00000000
Si       0.00175932       2.71585251      -2.71517797       0.00000000
