10
Lattice="16.28999089631971 0.0 0.0 0.0 16.28999089631971 0.0 0.0 0.0 34.36671206372826" Properties=species:S:1:pos:R:3:initial_magmoms:R:1 pbc="T T T"
Si      -1.31329980       1.25773461      -1.43498286       0.00000000
Si       1.41846057       1.35048987       1.37064834       0.00000000
Si      -1.53090162      -0.93701709       1.59496000       0.00000000
Si       1.41348234      -1.48941099      -1.42037700       0.00000000
Si      -2.54137032      -2.71966437       0.11774042       0.00000000
Si       0.23499386      -1.04475915       3.57372765       0.00000000
Si       2.49315911      -0.13493007       2.80274440       0.00000000
Si      -2.79463095       2.58327363       0.18977309       0.00000000
Si       0.07098819       2.58230709      -2.80143847       0.00000000
Si       2.82529592       2.56065768      -0.07691274       0.00000000
