10
Lattice="16.28999089631971 0.0 0.0 0.0 16.28999089631971 0.0 0.0 0.0 34.36671206372826" Properties=species:S:1:pos:R:3:initial_magmoms:R:1 pbc="T T T"
Si      -0.91434793      -0.14139720       2.15905553       0.00000000
Si      -1.20331461       2.01329739      -0.46092660       0.00000000
Si      -0.38851650      -2.15233254      -1.05457752       0.00000000
Si       2.33996076       0.63661320      -0.30156807       0.00000000
Si      -0.17400978       1.78116489      -2.60331426       0.00000000
Si      -3.27079484      -0.88951545      -1.06698391       0.00000000
Si      -1.05546820      -2.44672542       2.49516216       0.00000000
Si       2.20201704       1.58641794      -2.51719123       0.00000000
Si       0.86576463       0.42764508       3.58266300       0.00000000
Si      -1.76621067      -3.29395203       0.44491170       0.00000000
