10
Lattice="16.28999089631971 0.0 0.0 0.0 16.28999089631971 0.0 0.0 0.0 34.36671206372826" Properties=species:S:1:pos:R:3:initial_magmoms:R:1 pbc="T T T"
Si       1.35520657      -1.35949824      -1.35927296       0.00000000
Si      -1.36097403       1.35493704      -1.35858562       0.00000000
Si       1.33800108       1.35694071       1.38071780       0.00000000
Si      -1.36314060      -1.35873261       1.39343349       0.00000000
Si       2.62135171      -0.11704365       2.75683045       0.00000000
Si       2.71484002       2.71336014      -0.00030930       0.00000000
Si       2.71288522      -2.71575477       0.00058423       0.00000000
Si      -0.00185910       2.71329498      -2.71631207       0.00000000
Si       2.71340650      -0.00133578      -2.71655264       0.00000000
Si      -0.00188276      -2.71655298      -2.71655264       0.00000000
