10
Lattice="16.28999089631971 0.0 0.0 0.0 16.28999089631971 0.0 0.0 0.0 34.36671206372826" Properties=species:S:1:pos:R:3:initial_magmoms:R:1 pbc="T T T"
Si      -1.33800108      -1.35694071      -1.38071780       0.00000000
Si       1.37683894       1.35641943      -1.38102710       0.00000000
Si       1.28335064      -1.47398436       1.37611265       0.00000000
Si      -1.41348234       1.48941099       1.42037700       0.00000000
Si       2.47276498      -0.04207707       2.88673669       0.00000000
Si      -2.70114168      -2.71567332       0.01271569       0.00000000
Si      -2.69897511      -0.00200367      -2.73930342       0.00000000
Si       2.73977437       2.70145215      -0.01701153       0.00000000
Si       2.74124047      -2.70599706      -0.02505335       0.00000000
Si       0.01712405       2.71368594      -2.73971582       0.00000000
