10
Lattice="16.28999089631971 0.0 0.0 0.0 16.28999089631971 0.0 0.0 0.0 34.36671206372826" Properties=species:S:1:pos:R:3:initial_magmoms:R:1 pbc="T T T"
Si      -1.39308822       1.39655799       1.33638471       0.00000000
Si      -1.18941435      -1.43190729      -1.51062404       0.00000000
Si       1.50125382       1.34917038      -1.36707420       0.00000000
Si       0.40130415      -1.87975197       1.79366844       0.00000000
Si      -2.46778676       2.88197793      -0.09571135       0.00000000
Si      -2.47276498       0.04207707      -2.88673669       0.00000000
Si       0.26847549      -2.66391999      -2.91179004       0.00000000
Si      -0.23078043       2.17989522       3.30838212       0.00000000
Si      -2.11954077      -3.35947041      -0.43013401       0.00000000
Si       0.26700939       2.74352922      -2.90374823       0.00000000
