10
Lattice="16.28999089631971 0.0 0.0 0.0 16.28999089631971 0.0 0.0 0.0 34.36671206372826" Properties=species:S:1:pos:R:3:initial_magmoms:R:1 pbc="T T T"
Si      -0.79098443      -2.21089509      -0.45797106       0.00000000
Si      -1.59898472       1.65007926       0.66630219       0.00000000
Si       1.21939447       0.43531767      -2.05952947       0.00000000
Si       1.49087709       0.24477354       1.93587797       0.00000000
Si       3.22341633       0.91432512      -0.94584118       0.00000000
Si       2.62399320       2.18660670       0.94436341       0.00000000
Si       1.20351497      -3.34756242      -1.22129053       0.00000000
Si       2.28117015      -1.97615619       2.28552510       0.00000000
Si      -1.68688556       1.84319721       3.00963212       0.00000000
Si      -0.89278064       3.82728663       0.20791872       0.00000000
