10
Lattice="16.28999089631971 0.0 0.0 0.0 16.28999089631971 0.0 0.0 0.0 34.36671206372826" Properties=species:S:1:pos:R:3:initial_magmoms:R:1 pbc="T T T"
Si      -1.01072282      -2.14692426      -0.62585254       0.00000000
Si      -0.77216392       1.31416317      -1.96667056       0.00000000
Si       2.42699334       0.08444736      -0.85122957       0.00000000
Si      -1.25673115       0.81244746       2.18998558       0.00000000
Si       1.12988580      -3.19811796       0.02917735       0.00000000
Si       0.71866104       3.05294148      -1.32600596       0.00000000
Si      -3.31336549      -1.25187021      -1.36728040       0.00000000
Si      -3.16048384       1.80722889       1.12348281       0.00000000
Si       1.67332020      -2.58230709       2.39962264       0.00000000
Si       0.35511711       0.62763741      -3.93633103       0.00000000
