10
Lattice="16.28999089631971 0.0 0.0 0.0 16.28999089631971 0.0 0.0 0.0 34.36671206372826" Properties=species:S:1:pos:R:3:initial_magmoms:R:1 pbc="T T T"
Si      -1.35731212      -1.35483930       1.35662672       0.00000000
Si       1.35839052      -1.35259128      -1.35899802       0.00000000
Si      -1.35353610       1.35653346      -1.36057889       0.00000000
Si       1.35827649       1.35959598       1.35638615       0.00000000
Si       0.00130320      -2.71267596       2.71425007       0.00000000
Si      -2.71396240       0.00195480       2.71449064       0.00000000
Si       2.71585251      -2.71373481       0.00178707       0.00000000
Si       2.69900865      -0.01247814      -2.73100385       0.00000000
Si       2.71578735       0.00208512       2.71473120       0.00000000
Si      -2.71560109      -2.71510317      -0.00030930       0.00000000
