10
Lattice="16.28999089631971 0.0 0.0 0.0 16.28999089631971 0.0 0.0 0.0 34.36671206372826" Properties=species:S:1:pos:R:3:initial_magmoms:R:1 pbc="T T T"
Si      -1.35465648       1.35694953      -1.36006339       0.00000000
Si      -1.38428799      -1.32457248       1.36645560       0.00000000
Si       1.35961820      -1.35803214      -1.35865435       0.00000000
Si       1.36928794       1.34901630       1.36442796       0.00000000
Si      -0.05399772       2.64553577       2.72249808       0.00000000
Si      -0.07098819      -2.58230709       2.80143847       0.00000000
Si      -2.70988674       2.71774934      -0.00051550       0.00000000
Si      -2.71223250      -0.00029996      -2.71579657       0.00000000
Si      -2.71436649      -2.71425609      -0.00340231       0.00000000
Si       0.00292494       2.71496375      -2.71617461       0.00000000
