10
Lattice="16.28999089631971 0.0 0.0 0.0 16.28999089631971 0.0 0.0 0.0 34.36671206372826" Properties=species:S:1:pos:R:3:initial_magmoms:R:1 pbc="T T T"
Si      -1.35698422      -1.35733167      -1.35731405       0.00000000
Si       1.35823251       1.35747586      -1.35721095       0.00000000
Si       1.35971490      -1.35726651       1.35868872       0.00000000
Si      -1.35961820       1.35803214       1.35865435       0.00000000
Si       2.71463565       2.71443921      -0.00027493       0.00000000
Si      -2.71433984       0.00016290      -2.71476557       0.00000000
Si      -2.71427468       2.71498167      -0.00140904       0.00000000
Si      -0.00033394      -2.71412577      -2.71517797       0.00000000
Si       0.00064508       2.71474546      -2.71517797       0.00000000
Si       0.00966974       2.70704844       2.72308232       0.00000000
