10
Lattice="16.28999089631971 0.0 0.0 0.0 16.28999089631971 0.0 0.0 0.0 34.36671206372826" Properties=species:S:1:pos:R:3:initial_magmoms:R:1 pbc="T T T"
Si       1.32796080      -1.34861652      -1.36047579       0.00000000
Si      -1.40683535      -1.21016781       1.44756109       0.00000000
Si      -1.38501978       1.37066571      -1.36009776       0.00000000
Si       1.33457454       1.39195674       1.40089107       0.00000000
Si      -2.01986552       0.70643933       2.77837839       0.00000000
Si      -0.43546428       2.65910534       2.43625758       0.00000000
Si       2.56220523      -2.74297536       0.17619823       0.00000000
Si      -2.82529592      -2.56065768       0.07691274       0.00000000
Si       2.67872760       0.01831104      -2.72555672       0.00000000
Si      -0.03497463      -2.69364924      -2.72449135       0.00000000
