10
Lattice="16.28999089631971 0.0 0.0 0.0 16.28999089631971 0.0 0.0 0.0 34.36671206372826" Properties=species:S:1:pos:R:3:initial_magmoms:R:1 pbc="T T T"
Si       1.07469854      -1.48541994       1.43209606       0.00000000
Si       1.40683535       1.21016781      -1.44756109       0.00000000
Si      -1.41846057      -1.35048987      -1.37064834       0.00000000
Si      -0.61303017       1.91660714       1.33081730       0.00000000
Si      -1.18346671      -2.39524902       2.20307931       0.00000000
Si      -2.94936219      -2.28750696       0.22431165       0.00000000
Si       2.74140989       2.60212455      -0.04667002       0.00000000
Si      -2.69900118       2.66293349       0.16808768       0.00000000
Si       2.46778676      -2.88197793       0.09571135       0.00000000
Si       0.02181557       2.58083352      -2.80765884       0.00000000
