10
Lattice="16.290000149 0.0 0.0 0.0 16.290000149 0.0 0.0 0.0 29.1751946751" Properties=species:S:1:pos:R:3:initial_magmoms:R:1 pbc="T T T"
Si      -1.36454815      -1.35698959      -1.33701165       0.00000000
Si      -1.42744384       1.34050411       1.28747217       0.00000000
Si       1.34739478       1.34565175      -1.37479352       0.00000000
Si       1.37124334      -1.32001129       1.37841125       0.00000000
Si      -0.07027506       2.68205078       2.59851789       0.00000000
Si      -0.09128916      -2.62917344       2.66191559       0.00000000
Si       0.00016290      -2.71692767      -2.67157258       0.00000000
Si      -2.70945056       0.01630629      -2.68723966       0.00000000
Si       2.72603378      -0.02076975      -2.68487647       0.00000000
Si       2.72618039       2.68864823      -0.04819742       0.00000000
