10
Lattice="16.290000149 0.0 0.0 0.0 16.290000149 0.0 0.0 0.0 29.1751946751" Properties=species:S:1:pos:R:3:initial_magmoms:R:1 pbc="T T T"
Si       1.32514623      -1.35413884      -1.38929360       0.00000000
Si      -1.35251440       1.35557236      -1.36297757       0.00000000
Si      -1.34451601      -1.37704258       1.35565460       0.00000000
Si       1.35364721       1.38119653       1.34628936       0.00000000
Si       2.66409464      -2.71044425      -0.02299005       0.00000000
Si      -2.72493063      -0.02477709       2.68370946       0.00000000
Si      -2.69663490       2.72754876      -0.01896388       0.00000000
Si      -0.00543188       2.71090037      -2.71784444       0.00000000
Si       2.67603521      -0.00016290      -2.75308807       0.00000000
Si      -2.72023911      -2.71674848      -0.00636019       0.00000000
