10
Lattice="16.290000149 0.0 0.0 0.0 16.290000149 0.0 0.0 0.0 29.1751946751" Properties=species:S:1:pos:R:3:initial_magmoms:R:1 pbc="T T T"
Si       1.06246639       1.09115308      -0.20848594       0.00000000
H       -0.50938830       1.56522466       1.79663766       0.00000000
Si      -2.14477400      -0.78281596      -1.07446407       0.00000000
Si      -0.90230311       0.27953640       2.50658685       0.00000000
Si      -0.48311253      -2.47813256      -1.31950653       0.00000000
Si       1.11829222      -1.08857926       2.43087722       0.00000000
Si      -0.07521093      -2.71793765       1.04703939       0.00000000
Si       2.56633477       0.02819799      -1.63585317       0.00000000
Si       2.27382664       0.94786624       1.79126943       0.00000000
Si      -1.36158337       1.14924322      -2.47536939       0.00000000
