10
Lattice="16.290000149 0.0 0.0 0.0 16.290000149 0.0 0.0 0.0 29.1751946751" Properties=species:S:1:pos:R:3:initial_magmoms:R:1 pbc="T T T"
Si      -1.52826265       1.32540165       1.17867786       0.00000000
Si       1.39945762       1.31036598      -1.37021302       0.00000000
Si      -1.24063012      -1.40836988      -1.43533205       0.00000000
Si       0.96875002      -0.87292409       1.99076941       0.00000000
Si      -0.09355347       2.64585278       2.39893038       0.00000000
Si      -0.78732829      -1.16764278       3.47812083       0.00000000
Si      -2.57494403      -2.78321331      -0.11223697       0.00000000
Si       1.08115102      -3.18301879       1.78350883       0.00000000
Si      -2.69581583      -0.09178112       2.69715922       0.00000000
Si       0.04616586       2.64487538      -2.77158514       0.00000000
