10
Lattice="16.290000149 0.0 0.0 0.0 16.290000149 0.0 0.0 0.0 29.1751946751" Properties=species:S:1:pos:R:3:initial_magmoms:R:1 pbc="T T T"
Si       1.31869180       1.36195804       1.33466888       0.00000000
Si      -1.38466630       1.26117181      -1.40895768       0.00000000
Si       1.28456425      -1.45984465      -1.31625350       0.00000000
Si      -1.42498405      -1.39256695       1.27491808       0.00000000
Si      -2.17504082      -0.59818510      -2.60492739       0.00000000
Si      -0.54229410      -2.33440589      -2.52442456       0.00000000
Si       2.62772363       2.65061108      -0.13460268       0.00000000
Si       2.63570573      -0.02893104       2.67363526       0.00000000
Si      -0.09883143       2.69131979       2.63649524       0.00000000
Si       2.54454689      -2.82800919       0.08579550       0.00000000
