10
Lattice="16.290000149 0.0 0.0 0.0 16.290000149 0.0 0.0 0.0 29.1751946751" Properties=species:S:1:pos:R:3:initial_magmoms:R:1 pbc="T T T"
Si      -1.24973623      -1.37502262       1.41853157       0.00000000
Si       0.94923460      -1.32317155      -1.71748968       0.00000000
Si      -1.44612847       1.42286635      -1.22305765       0.00000000
Si       1.40740714       1.37718919       1.32447950       0.00000000
Si       2.32210694       0.14154381      -2.87644511       0.00000000
Si      -2.66740607       0.00638568       2.70810144       0.00000000
Si      -2.04011075      -3.23437953       0.22256186       0.00000000
Si       0.04605183       2.72787455       2.70952810       0.00000000
Si       2.76265371       0.01441665       2.69288657       0.00000000
Si       0.13493007      -2.63619443       2.82748925       0.00000000
