10
Lattice="16.290000149 0.0 0.0 0.0 16.290000149 0.0 0.0 0.0 29.1751946751" Properties=species:S:1:pos:R:3:initial_magmoms:R:1 pbc="T T T"
Si       1.60396228       1.69790672       0.03924064       0.00000000
Si       0.37178667      -0.87599476      -2.13381539       0.00000000
Si      -1.80615377       1.47763333       0.13087992       0.00000000
Si       0.23022657      -1.52329420       1.83439037       0.00000000
H       -0.90616384      -1.45182997       2.83028564       0.00000000
Si       1.06779322       2.72973162       2.04967413       0.00000000
Si       2.27064683      -0.82986148       2.76738392       0.00000000
Si      -3.63438048       0.18759564       0.77763564       0.00000000
Si       1.40403511       0.88796791      -3.33635856       0.00000000
H       -1.81100819       0.36088866       3.27158963       0.00000000
