10
Lattice="16.290000149 0.0 0.0 0.0 16.290000149 0.0 0.0 0.0 29.1751946751" Properties=species:S:1:pos:R:3:initial_magmoms:R:1 pbc="T T T"
Si       1.34921926       1.35703846       1.35693830       0.00000000
Si      -1.35839053      -1.34491870       1.36884178       0.00000000
Si      -1.35573526       1.36622602      -1.35084069       0.00000000
Si       1.37468053      -1.35035956      -1.34818575       0.00000000
Si      -0.04836501      -2.75190231      -2.59644353       0.00000000
Si       2.67807602      -2.69653259       0.06637357       0.00000000
Si      -0.02059056       2.72104904       2.68861089       0.00000000
Si      -2.66771558       0.02608029      -2.75030184       0.00000000
Si       2.69456150       0.00105885       2.72668452       0.00000000
Si       2.79966459       0.04220739      -2.62310383       0.00000000
