10
Lattice="16.290000149 0.0 0.0 0.0 16.290000149 0.0 0.0 0.0 29.1751946751" Properties=species:S:1:pos:R:3:initial_magmoms:R:1 pbc="T T T"
Si       1.28809918      -1.37613034      -1.40396872       0.00000000
Si      -1.33856397      -1.40178709       1.33117661       0.00000000
Si      -1.39290741       1.33530760      -1.34544328       0.00000000
Si       1.35218404       1.37013562       1.37173013       0.00000000
Si       2.58315419      -2.78612760      -0.07229613       0.00000000
Si      -2.73241670      -0.07159455       2.64934108       0.00000000
Si      -0.03839553       2.68889258      -2.69730510       0.00000000
Si       2.75058282      -0.00144981       2.65386323       0.00000000
Si       2.70930395       2.69865029       0.00548494       0.00000000
Si       2.64461636      -0.04075758      -2.76758814       0.00000000
