10
Lattice="16.290000149 0.0 0.0 0.0 16.290000149 0.0 0.0 0.0 29.1751946751" Properties=species:S:1:pos:R:3:initial_magmoms:R:1 pbc="T T T"
Si       1.34670572       1.33200073      -1.37432964       0.00000000
Si      -1.32961099      -1.35910729      -1.37933027       0.00000000
Si      -1.35279166       1.38867364       1.32767558       0.00000000
Si       1.36894157      -1.34899120       1.36224819       0.00000000
Si      -2.62158719      -2.67388949       0.09012218       0.00000000
Si      -2.69098259       0.03451851       2.71195105       0.00000000
Si       2.71268739       2.69848739      -0.01756347       0.00000000
Si      -0.03423018       2.66866040      -2.75106331       0.00000000
Si       0.01283163       2.71946891       2.70226488       0.00000000
Si       2.73394584       0.00433314       2.70982126       0.00000000
