10
Lattice="16.290000149 0.0 0.0 0.0 16.290000149 0.0 0.0 0.0 29.1751946751" Properties=species:S:1:pos:R:3:initial_magmoms:R:1 pbc="T T T"
Si       1.36277254      -1.33960816       1.36332767       0.00000000
Si       1.35500221       1.36950031      -1.34529740       0.00000000
Si      -1.35539317       1.35443206       1.36242324       0.00000000
Si      -1.33473745      -1.40401882      -1.33768268       0.00000000
Si       2.70702335      -2.67193469      -0.01998501       0.00000000
Si      -2.77034259      -0.08395866      -2.61648981       0.00000000
Si       0.00957852      -2.72691345       2.69266624       0.00000000
Si       0.00850338       2.71412579      -2.70842085       0.00000000
Si      -2.72733698       2.70164765       0.02625768       0.00000000
Si      -2.72826551       0.01005093       2.70144798       0.00000000
