10
Lattice="16.290000149 0.0 0.0 0.0 16.290000149 0.0 0.0 0.0 29.1751946751" Properties=species:S:1:pos:R:3:initial_magmoms:R:1 pbc="T T T"
Si      -2.25020288       0.48200481      -0.27812713       0.00000000
Si       0.92891608      -0.81279444      -1.99511651       0.00000000
Si       0.28086860      -1.83348269       1.55891818       0.00000000
Si       1.33371118       1.98171110       0.48179916       0.00000000
Si       1.62452678      -0.61596889       3.03983064       0.00000000
Si       2.96272749       0.79073290       1.69156203       0.00000000
Si       2.76667734      -1.99158284      -1.06903748       0.00000000
Si      -0.94457566      -1.70109467      -3.11561904       0.00000000
Si      -2.97825186       1.13479399       1.89756254       0.00000000
H       -1.98281882      -0.58067172      -3.09507970       0.00000000
