10
Lattice="16.290000149 0.0 0.0 0.0 16.290000149 0.0 0.0 0.0 29.1751946751" Properties=species:S:1:pos:R:3:initial_magmoms:R:1 pbc="T T T"
Si       1.36845775      -1.34382727      -1.34106700       0.00000000
Si       1.37657017       1.33529131       1.34483060       0.00000000
Si      -1.34930071      -1.36086661       1.35813449       0.00000000
Si      -1.34534224       1.35597961      -1.36974621       0.00000000
Si      -0.00206883       2.70171281       2.65491354       0.00000000
Si      -0.01648548      -2.69759144      -2.66031095       0.00000000
Si      -2.71401176      -0.00092853       2.69269542       0.00000000
Si       2.74080882       0.01221750      -2.67615308       0.00000000
Si      -2.69456150      -0.00105885      -2.72668452       0.00000000
Si       0.02034621      -2.70231554       2.72079113       0.00000000
