10
Lattice="16.290000149 0.0 0.0 0.0 16.290000149 0.0 0.0 0.0 29.1751946751" Properties=species:S:1:pos:R:3:initial_magmoms:R:1 pbc="T T T"
Si       0.61258546       0.52035147      -2.17918282       0.00000000
Si      -2.29273607      -0.04841388       0.46006364       0.00000000
Si       0.74751553       2.05421789       0.88082830       0.00000000
Si       1.23448879      -1.86154140       0.94419683       0.00000000
Si       1.69554467       1.01310769       2.70483230       0.00000000
Si       3.04047966      -0.53022321       1.54934871       0.00000000
Si       1.31880583      -1.51754058      -2.96603782       0.00000000
Si      -0.23555340      -0.01073511       3.61880362       0.00000000
Si      -2.43636500       0.37662480       2.81776948       0.00000000
Si      -3.14489856       2.03242187      -0.33353083       0.00000000
