10
Lattice="16.290000149 0.0 0.0 0.0 16.290000149 0.0 0.0 0.0 29.1751946751" Properties=species:S:1:pos:R:3:initial_magmoms:R:1 pbc="T T T"
Si       1.43860249      -1.19174383      -1.36443020       0.00000000
Si      -1.34200279      -1.45841113       1.24037202       0.00000000
Si      -1.35815433       1.23639472      -1.45787835       0.00000000
Si       1.42718320       1.35987292       1.27950763       0.00000000
Si      -2.70466130      -0.00141723       2.52417395       0.00000000
Si       0.07851780      -2.53493579      -2.71118636       0.00000000
Si      -2.52374815       2.82606009      -0.16439610       0.00000000
Si       0.10046043       2.67346595       2.70122654       0.00000000
Si       2.71052570      -2.67387320      -0.00409416       0.00000000
Si       2.75454129      -0.03028311       2.65300577       0.00000000
