10
Lattice="16.290000149 0.0 0.0 0.0 16.290000149 0.0 0.0 0.0 29.1751946751" Properties=species:S:1:pos:R:3:initial_magmoms:R:1 pbc="T T T"
Si       1.70057828      -1.64566469      -0.11389996       0.00000000
Si      -2.04823946      -1.01097370      -0.72777523       0.00000000
Si       1.37544616       1.74474047      -0.92199450       0.00000000
Si      -1.01261899       1.24118398       1.83794974       0.00000000
H        0.80886367      -1.48761910      -2.65392158       0.00000000
H       -0.60017248       0.56035972      -3.12049130       0.00000000
Si       2.14770620      -1.88569784       2.16685951       0.00000000
Si      -2.36610786       2.64940562       0.52060217       0.00000000
Si      -3.46821271       0.93866239      -0.72754183       0.00000000
Si       3.57251106      -0.75579085      -1.37765269       0.00000000
