10
Lattice="16.290000149 0.0 0.0 0.0 16.290000149 0.0 0.0 0.0 29.1751946751" Properties=species:S:1:pos:R:3:initial_magmoms:R:1 pbc="T T T"
Si      -0.83526976       1.23993617      -1.71470788       0.00000000
Si      -1.83174536      -1.01863000       0.94390216       0.00000000
Si       1.04187583       1.84954381       0.95482535       0.00000000
Si       1.74353501      -1.54489474      -0.45082590       0.00000000
H       -1.01243980       2.62718606      -1.10523806       0.00000000
Si      -0.42557625      -2.38523069       2.19421679       0.00000000
Si       1.49507992      -1.03817800      -2.74891018       0.00000000
Si       2.46050678       0.50779742       2.20482489       0.00000000
Si       1.05841018       1.24774885      -3.05274066       0.00000000
Si       0.99800686      -0.92703133       3.41662536       0.00000000
