10
Lattice="16.290000149 0.0 0.0 0.0 16.290000149 0.0 0.0 0.0 29.1751946751" Properties=species:S:1:pos:R:3:initial_magmoms:R:1 pbc="T T T"
Si      -1.53859051       0.93618631      -1.53549050       0.00000000
Si      -1.16971975      -0.15530886       2.05212484       0.00000000
Si       1.06166818      -1.71344738      -1.28029507       0.00000000
Si       1.51084864       1.85186351       0.42505341       0.00000000
H       -2.02103516      -2.72404640      -0.86203948       0.00000000
H        0.60132907      -2.98043472       1.87608172       0.00000000
Si      -2.58020570       2.55939849      -0.22922950       0.00000000
Si       2.35060102      -0.44238753      -2.80939620       0.00000000
Si      -0.26011872       2.38533902      -2.81747772       0.00000000
Si       0.38535624       0.62866369       3.64751201       0.00000000
