10
Lattice="16.290000149 0.0 0.0 0.0 16.290000149 0.0 0.0 0.0 29.1751946751" Properties=species:S:1:pos:R:3:initial_magmoms:R:1 pbc="T T T"
Si       1.34962651       1.39830103      -1.32086609       0.00000000
Si      -1.35356869       1.36866952       1.35378738       0.00000000
Si       1.37604889      -1.34812783       1.35655903       0.00000000
Si      -1.36598167      -1.36648666      -1.35676617       0.00000000
Si       2.73134432       0.04380381      -2.64287002       0.00000000
Si      -2.71268739      -2.69848739       0.01756347       0.00000000
Si       2.68775228       2.72228708       0.08084446       0.00000000
Si      -2.69985575       0.02098152       2.71982835       0.00000000
Si       0.02125845      -2.69415425       2.72738472       0.00000000
Si      -2.71845731       2.71477739      -0.01765099       0.00000000
