10
Lattice="16.290000149 0.0 0.0 0.0 16.290000149 0.0 0.0 0.0 29.1751946751" Properties=species:S:1:pos:R:3:initial_magmoms:R:1 pbc="T T T"
Si       1.33789771       1.33563177      -1.32364941       0.00000000
Si      -1.32823774       1.42490097       1.28003249       0.00000000
Si       1.43826040      -1.34387777       1.25421244       0.00000000
Si      -1.35918874      -1.27498487      -1.41504362       0.00000000
Si       0.05563035      -2.68307868       2.58678946       0.00000000
Si      -2.67858101       0.05385311       2.61400992       0.00000000
Si       2.78321169       0.04838619       2.58795647       0.00000000
Si      -2.70858719      -2.67040506      -0.10812327       0.00000000
Si       0.05670549       2.77866515       2.59927644       0.00000000
Si      -0.03828150      -2.76219921      -2.62061226       0.00000000
