10
Lattice="16.290000149 0.0 0.0 0.0 16.290000149 0.0 0.0 0.0 29.1751946751" Properties=species:S:1:pos:R:3:initial_magmoms:R:1 pbc="T T T"
Si      -1.28055040       1.37010793      -1.38471017       0.00000000
Si       1.29929041       1.33062749       1.42208068       0.00000000
Si      -1.41400296      -1.38727270       1.25499434       0.00000000
Si       1.32672277      -1.31359303      -1.42171891       0.00000000
Si       2.64611504       2.66017331       0.07882846       0.00000000
Si       2.65408085      -2.70374906      -0.04822076       0.00000000
Si      -0.04911435      -2.73338058       2.62643272       0.00000000
Si      -0.10046043      -2.67346595      -2.70122654       0.00000000
Si      -2.71009418       2.67911858      -0.03263246       0.00000000
Si      -2.69396008      -0.04189788       2.70996130       0.00000000
