10
Lattice="16.290000149 0.0 0.0 0.0 16.290000149 0.0 0.0 0.0 29.1751946751" Properties=species:S:1:pos:R:3:initial_magmoms:R:1 pbc="T T T"
Si      -1.35348887       1.40822164      -1.31734757       0.00000000
Si       1.16514226       1.46844577       1.45269129       0.00000000
Si      -1.48845152      -1.20027979       1.43187771       0.00000000
Si       1.01261899      -1.24118398      -1.83794974       0.00000000
Si      -2.45559372      -0.30252159      -2.56549157       0.00000000
Si      -1.03562047      -2.25215768      -2.56572497       0.00000000
Si       2.38806515       0.50355648      -2.75994424       0.00000000
Si       2.53302986       0.11388339       2.81444934       0.00000000
Si      -0.13201416      -2.54482382       2.80663914       0.00000000
Si       2.45128664       2.95968126       0.17634830       0.00000000
