10
Lattice="16.290000149 0.0 0.0 0.0 16.290000149 0.0 0.0 0.0 29.1751946751" Properties=species:S:1:pos:R:3:initial_magmoms:R:1 pbc="T T T"
Si      -1.36933741      -1.33954463       1.34900265       0.00000000
Si      -1.36453186       1.36466218      -1.32977620       0.00000000
Si       1.35863488       1.34789977       1.35752181       0.00000000
Si       1.36197433      -1.36561678      -1.34109617       0.00000000
Si       0.01195686      -2.68310317       2.67559875       0.00000000
Si       0.00781920       2.72070695      -2.66486228       0.00000000
Si       2.71327871       0.02076975      -2.67314804       0.00000000
Si      -2.74947510       0.01089801      -2.64902015       0.00000000
Si      -0.00247608       2.68721471       2.71912814       0.00000000
Si      -2.71539641      -2.71717202       0.00291752       0.00000000
