10
Lattice="16.290000149 0.0 0.0 0.0 16.290000149 0.0 0.0 0.0 29.1751946751" Properties=species:S:1:pos:R:3:initial_magmoms:R:1 pbc="T T T"
Si       0.62851708       0.06504597       1.38348773       0.00000000
H        2.09507321      -0.65547703      -0.42767918       0.00000000
Si       1.36130644      -0.86398903      -1.73831645       0.00000000
Si      -0.49852287      -2.33554619      -1.86741669       0.00000000
Si      -1.10242576       0.52833357       2.88026274       0.00000000
H       -3.07804440      -0.65604718       0.68176595       0.00000000
Si       1.09463914      -1.97219774       2.42460455       0.00000000
H       -1.66900826      -2.70402599       1.14833566       0.00000000
Si       2.50274675       1.57749103       1.72480833       0.00000000
Si       1.05593410       1.09638217      -3.08008365       0.00000000
