10
Lattice="16.290000149 0.0 0.0 0.0 16.290000149 0.0 0.0 0.0 29.1751946751" Properties=species:S:1:pos:R:3:initial_magmoms:R:1 pbc="T T T"
Si       2.23011731      -0.51017022       0.32442816       0.00000000
Si      -1.04837554       0.66281730       2.07540665       0.00000000
Si      -0.04724100       2.05553738      -1.29841286       0.00000000
Si      -0.64382968      -1.76226851      -1.59436604       0.00000000
Si      -2.34422876       2.02067678      -0.92009811       0.00000000
H       -0.64868410      -2.87901318       1.54634367       0.00000000
Si       2.76628638      -1.54199512      -1.68600533       0.00000000
Si      -3.10500435       1.41762912       1.23043466       0.00000000
Si       3.47943000       1.26591546      -0.53008411       0.00000000
Si       1.16232409      -3.23990184      -1.72524596       0.00000000
