10
Lattice="16.290000149 0.0 0.0 0.0 16.290000149 0.0 0.0 0.0 29.1751946751" Properties=species:S:1:pos:R:3:initial_magmoms:R:1 pbc="T T T"
Si      -1.30554577      -1.31876841      -1.44452224       0.00000000
Si      -1.31834971       1.37896317       1.38590927       0.00000000
Si       1.27562104      -1.38937574       1.42010260       0.00000000
Si       1.37041255       1.35443043      -1.37292631       0.00000000
Si      -2.66523950      -2.67516174      -0.12163139       0.00000000
Si       2.67061520       0.01640892       2.69526283       0.00000000
Si       2.70133814      -2.67982068       0.01382904       0.00000000
Si      -2.67164147       2.71347257      -0.01546285       0.00000000
Si       0.08273691       2.74838204       2.70261498       0.00000000
Si      -2.68684004       0.02479012      -2.77111834       0.00000000
