10
Lattice="16.290000149 0.0 0.0 0.0 16.290000149 0.0 0.0 0.0 29.1751946751" Properties=species:S:1:pos:R:3:initial_magmoms:R:1 pbc="T T T"
Si       1.83174536       1.01863000      -0.94390216       0.00000000
Si       1.40616910      -1.36660069       1.25031464       0.00000000
Si      -1.32090724       1.48721435       1.20556864       0.00000000
Si      -1.30536658      -1.18224676      -1.55037772       0.00000000
Si       0.99647560       2.25856617      -2.65861004       0.00000000
Si      -2.67030569       0.09179415       2.51248899       0.00000000
Si      -2.62671365      -2.58668912      -0.21122549       0.00000000
Si       0.05090625      -2.70648578       2.56465424       0.00000000
Si       2.74230750      -2.52275087      -0.30515503       0.00000000
Si       2.82975222       0.09159867       2.47272320       0.00000000
