10
Lattice="16.290000149 0.0 0.0 0.0 16.290000149 0.0 0.0 0.0 29.1751946751" Properties=species:S:1:pos:R:3:initial_magmoms:R:1 pbc="T T T"
Si       1.27847179       1.44915271      -1.28198723       0.00000000
Si      -1.04161519       1.62321218       1.30626099       0.00000000
Si       1.53859051      -0.93618631       1.53549050       0.00000000
Si      -1.62292384      -1.29785689      -1.15533771       0.00000000
Si       2.45723249       2.61704717       0.41189540       0.00000000
Si      -1.56618577       0.38356434       3.24661566       0.00000000
H        0.56505124      -2.25530165      -2.86071536       0.00000000
Si       2.57803913       0.04313592      -2.63568709       0.00000000
Si       2.60025869      -2.64963368       0.25519543       0.00000000
Si       3.04943916       0.91567720       1.96054391       0.00000000
