10
Lattice="16.290000149 0.0 0.0 0.0 16.290000149 0.0 0.0 0.0 29.1751946751" Properties=species:S:1:pos:R:3:initial_magmoms:R:1 pbc="T T T"
Si      -1.61394805       0.16055424       1.67841977       0.00000000
Si       0.83706166       1.93664155      -1.00992854       0.00000000
Si       1.77209138      -1.16535403       1.01599698       0.00000000
Si      -1.55507599      -0.78397255      -1.59538717       0.00000000
H       -0.20118150       3.05706451      -0.98938920       0.00000000
Si      -2.05061780       2.44648109       1.37458930       0.00000000
Si       0.62773516      -2.78809869       2.22542550       0.00000000
Si       1.12549240       1.22319982      -3.22245860       0.00000000
Si      -2.47857239      -2.62174520      -0.41872239       0.00000000
Si      -0.38535624      -0.62866369      -3.64751201       0.00000000
