10
Lattice="16.290000149 0.0 0.0 0.0 16.290000149 0.0 0.0 0.0 29.1751946751" Properties=species:S:1:pos:R:3:initial_magmoms:R:1 pbc="T T T"
Si       0.13846500      -0.79589683      -1.27863208       0.00000000
H       -1.40903614       2.04797882      -0.46656971       0.00000000
Si       0.89171461      -0.15804558       2.54002162       0.00000000
H       -1.29129202      -2.67384062       0.44147905       0.00000000
Si      -2.06529509      -0.68165506      -2.09889268       0.00000000
Si       0.99062749      -2.87673258      -0.48503761       0.00000000
Si       2.76364740       0.73182826       1.27626889       0.00000000
Si      -0.80886367       1.48761910       2.65392158       0.00000000
Si       0.84699856      -2.45169389       1.87266822       0.00000000
Si       1.17048538       0.36847980      -3.01575235       0.00000000
