10
Lattice="16.290000149 0.0 0.0 0.0 16.290000149 0.0 0.0 0.0 29.1751946751" Properties=species:S:1:pos:R:3:initial_magmoms:R:1 pbc="T T T"
Si       1.34649883      -1.34462548       1.36312345       0.00000000
Si      -1.35321031       1.32672277       1.40210151       0.00000000
Si      -1.42358311      -1.45819936      -1.22240856       0.00000000
Si       1.46249992       1.43482875      -1.21180046       0.00000000
Si      -0.99800686       0.92703133      -3.41662536       0.00000000
Si       0.04386897       2.77657514      -2.46180001       0.00000000
Si      -2.82975222      -0.09159867      -2.47272320       0.00000000
Si       2.69003288      -2.64865628      -0.05814616       0.00000000
Si      -0.08744472      -2.61434954      -2.77787823       0.00000000
Si      -0.00850338      -2.71412579       2.70842085       0.00000000
