10
Lattice="16.290000149 0.0 0.0 0.0 16.290000149 0.0 0.0 0.0 29.1751946751" Properties=species:S:1:pos:R:3:initial_magmoms:R:1 pbc="T T T"
Si       1.38263005       1.33920091      -1.33257702       0.00000000
Si       1.37194381      -1.34721559       1.33616557       0.00000000
Si      -1.34978941       1.37990962       1.34518070       0.00000000
Si      -1.37815030      -1.34281729      -1.35787191       0.00000000
Si      -0.05563035       2.68307868      -2.58678946       0.00000000
Si      -0.00092853      -2.69159672       2.67519030       0.00000000
Si      -2.72807003       0.02433726       2.67236031       0.00000000
Si       2.72878679       0.02052540       2.68843584       0.00000000
Si       2.72733698      -2.70164765      -0.02625768       0.00000000
Si      -0.04300560      -2.78560632      -2.64274748       0.00000000
