10
Lattice="16.290000149 0.0 0.0 0.0 16.290000149 0.0 0.0 0.0 29.1751946751" Properties=species:S:1:pos:R:3:initial_magmoms:R:1 pbc="T T T"
Si       0.87351868      -0.83549782       0.91417555       0.00000000
H       -1.93337867      -0.40177656      -1.24344680       0.00000000
Si       0.89770933       0.98806996      -2.06592471       0.00000000
Si      -0.99816976      -0.34094970      -2.43589535       0.00000000
Si      -0.71733016       2.51295895      -0.97375130       0.00000000
Si      -1.45083628       2.17746477       1.29228607       0.00000000
Si       1.90926947      -2.32476221      -0.54826026       0.00000000
Si      -0.52038405      -2.05917005       2.34845730       0.00000000
Si       2.77389381       0.45753723       1.54888191       0.00000000
Si       2.83276587      -0.48698955      -1.72492503       0.00000000
