10
Lattice="16.290000149 0.0 0.0 0.0 16.290000149 0.0 0.0 0.0 29.1751946751" Properties=species:S:1:pos:R:3:initial_magmoms:R:1 pbc="T T T"
Si       1.36200691       1.35993808      -1.33934566       0.00000000
Si      -1.35122293       1.39345308       1.32942610       0.00000000
Si       1.39057957      -1.34060185       1.34389699       0.00000000
Si      -1.35684298      -1.36774099      -1.35227027       0.00000000
Si      -2.71091666       0.03705975       2.65231695       0.00000000
Si       0.05004288      -2.77581603       2.60794148       0.00000000
Si      -0.00120546       2.71093947      -2.68726883       0.00000000
Si       2.71166600      -0.00386073      -2.69537954       0.00000000
Si       2.69268815       2.71970186       0.03947404       0.00000000
Si      -2.72878679      -0.02052540      -2.68843584       0.00000000
