10
Lattice="16.290000149 0.0 0.0 0.0 16.290000149 0.0 0.0 0.0 29.1751946751" Properties=species:S:1:pos:R:3:initial_magmoms:R:1 pbc="T T T"
Si       1.30763089       1.34155319      -1.42374950       0.00000000
Si      -1.34096023      -1.34886476      -1.38742638       0.00000000
Si       1.43850475      -1.36446019       1.28204558       0.00000000
Si      -1.42167718       1.35368924       1.33674907       0.00000000
Si       0.10451664      -2.65466078       2.65978580       0.00000000
Si      -2.67235661      -2.70563219      -0.02252325       0.00000000
Si       2.60350040       2.77070748      -0.10879430       0.00000000
Si       2.68112225      -0.05218827       2.76169475       0.00000000
Si       2.72823293      -0.02525113      -2.71810701       0.00000000
Si      -0.11948715       2.82697314       2.61931980       0.00000000
