10
Lattice="16.290000149 0.0 0.0 0.0 16.290000149 0.0 0.0 0.0 29.1751946751" Properties=species:S:1:pos:R:3:initial_magmoms:R:1 pbc="T T T"
Si       0.62020918      -0.42041232       2.15301267       0.00000000
Si       1.76520071       0.81762769      -1.27270952       0.00000000
Si      -0.88754437      -1.88317289      -1.08266230       0.00000000
Si      -1.61212357       1.77567518       0.09289382       0.00000000
H        2.71117730       1.71401753      -0.55307417       0.00000000
Si      -2.27993213      -0.58958398      -2.43846277       0.00000000
Si       0.48571893       2.15788745      -2.65345478       0.00000000
H        3.43391574       0.69669073       0.59394861       0.00000000
Si      -1.54403137      -0.98624548       3.10459082       0.00000000
Si      -3.46967229       0.85354714      -1.02334913       0.00000000
