10
Lattice="16.290000149 0.0 0.0 0.0 16.290000149 0.0 0.0 0.0 29.1751946751" Properties=species:S:1:pos:R:3:initial_magmoms:R:1 pbc="T T T"
Si      -1.42573339      -1.28909287      -1.33509600       0.00000000
Si      -1.38171781       1.35449722       1.32200393       0.00000000
Si       1.32134707       1.40444236      -1.33915223       0.00000000
Si       1.36946773      -1.41340186       1.30443171       0.00000000
Si       2.62671365       2.58668912       0.21122549       0.00000000
Si       2.65926107       0.05043384      -2.68201146       0.00000000
Si      -0.12271257      -2.71841006      -2.62815405       0.00000000
Si      -2.73134432      -0.04380381       2.64287002       0.00000000
Si      -2.69765660       0.19303650      -2.69543205       0.00000000
Si      -0.04359204       2.67848327       2.72371448       0.00000000
