10
Lattice="16.290000149 0.0 0.0 0.0 16.290000149 0.0 0.0 0.0 29.1751946751" Properties=species:S:1:pos:R:3:initial_magmoms:R:1 pbc="T T T"
Si       1.44218059      -1.34692237       1.28700536       0.00000000
Si      -1.26508141      -1.37300266      -1.44388038       0.00000000
Si       1.37906254       1.32857983      -1.38124124       0.00000000
Si      -1.42571710       1.29044494       1.40627356       0.00000000
Si       0.08853615      -2.76198582       2.59393738       0.00000000
Si      -0.03072294       2.69622960       2.68143379       0.00000000
Si      -2.70133814       2.67982068      -0.01382904       0.00000000
Si      -2.60561810      -2.80821684      -0.17983590       0.00000000
Si       0.03702717       2.68730105      -2.74830334       0.00000000
Si       2.74176504       2.69568389      -0.03737342       0.00000000
