10
Lattice="16.290000149 0.0 0.0 0.0 16.290000149 0.0 0.0 0.0 29.1751946751" Properties=species:S:1:pos:R:3:initial_magmoms:R:1 pbc="T T T"
H        0.54968977       0.26109612      -1.37984083       0.00000000
Si       1.67896145      -0.90688060       1.34062937       0.00000000
Si      -0.83579104       1.87887233       1.11685563       0.00000000
Si      -1.79532092      -1.59894496      -0.13543125       0.00000000
H        1.79343128       2.02450493      -0.98463365       0.00000000
H       -1.03431727       1.13831263      -2.54874501       0.00000000
H       -0.12947292      -0.67440601      -2.99004900       0.00000000
Si      -2.15049179       0.50971410       2.59384986       0.00000000
Si       2.66338244      -2.37938258      -0.13756104       0.00000000
Si       0.42445224      -2.40173246       2.66112786       0.00000000
