10
Lattice="16.290000149 0.0 0.0 0.0 16.290000149 0.0 0.0 0.0 29.1751946751" Properties=species:S:1:pos:R:3:initial_magmoms:R:1 pbc="T T T"
Si      -1.44062245       1.32569650       1.27241777       0.00000000
Si      -1.37878561      -1.34299648      -1.32659610       0.00000000
Si       1.35187453       1.36296802      -1.34725214       0.00000000
Si       1.36036162      -1.34848621       1.36297757       0.00000000
Si      -0.03080439       2.74087398       2.43172330       0.00000000
Si      -0.00014661      -2.70941798      -2.63667904       0.00000000
Si       2.72758133       0.01115865      -2.66865506       0.00000000
Si      -2.71819829       0.02919168      -2.68239657       0.00000000
Si      -0.01026270       2.74812303      -2.65987332       0.00000000
Si      -2.72618039      -2.68864823       0.04819742       0.00000000
