10
Lattice="16.290000149 0.0 0.0 0.0 16.290000149 0.0 0.0 0.0 29.1751946751" Properties=species:S:1:pos:R:3:initial_magmoms:R:1 pbc="T T T"
Si       0.85353085      -1.82959508       1.15332462       0.00000000
Si      -1.71525557       0.76546711       1.38252495       0.00000000
Si      -1.07031817      -0.07317468      -2.11123379       0.00000000
Si       1.79532092       1.59894496       0.13543125       0.00000000
H        2.34501068       1.86004109      -1.24440958       0.00000000
H       -1.12208779      -3.01397583      -1.04517217       0.00000000
H        1.66584800       0.92453896      -2.85461775       0.00000000
Si      -0.35517087       2.10865907       2.72928111       0.00000000
Si       2.58447368      -2.29288268      -0.34345039       0.00000000
Si      -0.59293972       2.14625639      -2.69368737       0.00000000
