10
Lattice="16.290000149 0.0 0.0 0.0 16.290000149 0.0 0.0 0.0 29.1751946751" Properties=species:S:1:pos:R:3:initial_magmoms:R:1 pbc="T T T"
Si       1.35475786      -1.35808102      -1.34226318       0.00000000
Si      -1.34452774      -1.35617346       1.36084778       0.00000000
Si       1.37228590       1.34969167       1.34220483       0.00000000
Si      -1.33136542       1.36458073      -1.37377239       0.00000000
Si       2.70510113       0.01296684      -2.67624061       0.00000000
Si       0.00757485       2.70962975       2.67676576       0.00000000
Si       0.04642650      -2.70324407       2.69106161       0.00000000
Si      -2.68750793       2.72228708      -0.02252325       0.00000000
Si      -2.69708645      -2.71461449       0.00358855       0.00000000
Si       0.00270414      -2.72909630      -2.68274668       0.00000000
