10
Lattice="16.290000149 0.0 0.0 0.0 16.290000149 0.0 0.0 0.0 29.1751946751" Properties=species:S:1:pos:R:3:initial_magmoms:R:1 pbc="T T T"
Si       1.72374266       0.94493404       1.27334933       0.00000000
Si      -0.87053761      -1.72425416       1.37890227       0.00000000
Si       0.72804898      -0.65278918      -2.17568967       0.00000000
Si      -1.71349625       1.65547127       0.15323775       0.00000000
H       -2.92485324      -0.94661191      -0.68116115       0.00000000
Si       0.46389033       2.34835013       2.63427297       0.00000000
Si      -2.36797958      -0.49459698       2.66494193       0.00000000
Si      -0.85400326      -2.32604912      -2.62866374       0.00000000
Si       2.97825186      -1.13479399      -1.89756254       0.00000000
Si      -2.39024801       2.05226309      -1.97108403       0.00000000
