10
Lattice="16.290000149 0.0 0.0 0.0 16.290000149 0.0 0.0 0.0 29.1751946751" Properties=species:S:1:pos:R:3:initial_magmoms:R:1 pbc="T T T"
Si       1.34628706       1.34768800      -1.36604097       0.00000000
Si       1.35386191      -1.35915616       1.35413749       0.00000000
Si      -1.32760519       1.35190711       1.38938112       0.00000000
Si      -1.36562329      -1.33079527      -1.37458930       0.00000000
Si       2.67851585       2.69478956       0.04244991       0.00000000
Si      -2.70381422      -2.68495040       0.00968616       0.00000000
Si      -2.69772176       2.70529661       0.04898515       0.00000000
Si       2.69646743       0.00467523       2.71294300       0.00000000
Si      -2.67468770      -0.00342090       2.74424799       0.00000000
Si       2.69985575      -0.02098152      -2.71982835       0.00000000
