10
Lattice="16.290000149 0.0 0.0 0.0 16.290000149 0.0 0.0 0.0 29.1751946751" Properties=species:S:1:pos:R:3:initial_magmoms:R:1 pbc="T T T"
Si      -1.22701168       1.20258222       1.59590357       0.00000000
Si      -1.94398346      -0.85010995      -1.05974723       0.00000000
Si       1.30310227      -1.52717122       1.31692744       0.00000000
Si       1.48401543       1.30030609      -1.37164260       0.00000000
H       -0.80034400      -2.51687018      -1.81373433       0.00000000
Si      -2.64564263       2.54432861       0.34590403       0.00000000
Si       2.64960925      -0.28935927      -2.66512486       0.00000000
Si       2.82767361       2.51781989       0.10926986       0.00000000
Si      -3.68751846       0.69478480      -0.60892132       0.00000000
Si       2.69422104      -0.23956074       2.74897437       0.00000000
