10
Lattice="16.290000149 0.0 0.0 0.0 16.290000149 0.0 0.0 0.0 29.1751946751" Properties=species:S:1:pos:R:3:initial_magmoms:R:1 pbc="T T T"
Si      -1.54150642      -1.30166875      -1.20003411       0.00000000
Si      -1.40014180       1.17951004       1.47568135       0.00000000
Si       1.39110085      -1.31103550       1.42660867       0.00000000
Si       0.79288318       1.49023528      -1.70992898       0.00000000
H        1.19257462      -2.05159520      -2.23899196       0.00000000
Si      -1.26374563       2.24504710      -2.55490097       0.00000000
Si      -0.16136874      -2.64259640      -2.51936559       0.00000000
Si      -2.55415962       0.26430525      -2.68006256       0.00000000
Si       0.04548168       2.61852304       2.75087076       0.00000000
H       -0.57277270       3.76535208       0.03719837       0.00000000
