10
Lattice="16.290000149 0.0 0.0 0.0 16.290000149 0.0 0.0 0.0 29.1751946751" Properties=species:S:1:pos:R:3:initial_magmoms:R:1 pbc="T T T"
Si       1.34783950       1.34764076      -1.37680661       0.00000000
Si      -1.36270250      -1.36710405      -1.34386782       0.00000000
Si       1.41119131      -1.33572362       1.32770476       0.00000000
Si      -1.38840812       1.34451308       1.34888595       0.00000000
Si       0.07979494      -2.69249105       2.69260789       0.00000000
Si      -0.01751012       2.71316631       2.68388451       0.00000000
Si      -2.69986716       2.71401339      -0.02803736       0.00000000
Si      -2.70473787      -0.00838283      -2.71092991       0.00000000
Si       2.70220640       2.71800444      -0.04151630       0.00000000
Si       0.00295175      -2.71500383      -2.71877804       0.00000000
