10
Lattice="16.290000149 0.0 0.0 0.0 16.290000149 0.0 0.0 0.0 29.1751946751" Properties=species:S:1:pos:R:3:initial_magmoms:R:1 pbc="T T T"
Si       1.60710625      -0.16296516      -1.68431316       0.00000000
Si      -0.43495929       2.28874665      -0.30100048       0.00000000
Si       0.25327692      -0.51476400       2.29668095       0.00000000
Si      -1.89553700      -1.30282534      -0.63135121       0.00000000
H        1.32875902      -2.23585139       1.49058987       0.00000000
H       -2.78265783      -0.45682047      -1.52306186       0.00000000
Si      -1.49312512       1.02776869       2.74991964       0.00000000
Si       0.04989627      -0.95493610      -3.27561581       0.00000000
Si      -2.32914422       2.27361650       1.03828683       0.00000000
Si      -0.85923235      -2.79006978      -2.10099329       0.00000000
