10
Lattice="16.290000149 0.0 0.0 0.0 16.290000149 0.0 0.0 0.0 29.1751946751" Properties=species:S:1:pos:R:3:initial_magmoms:R:1 pbc="T T T"
Si      -0.90912862      -1.83513368       1.17462251       0.00000000
Si       1.15232203       0.12937518      -2.05705545       0.00000000
Si       1.55720998       0.79197094       1.59130264       0.00000000
Si      -1.93122839       1.49406994      -0.31127015       0.00000000
Si      -1.94543327      -0.34788924       2.64426459       0.00000000
H       -2.83255410       0.49811562       1.75255394       0.00000000
Si      -0.04989627       0.95493610       3.27561581       0.00000000
H        1.92498932      -2.87350716      -0.10961121       0.00000000
Si       2.39596580       2.72048215       0.57504309       0.00000000
Si       2.67809231       1.97928389      -1.62975555       0.00000000
