10
Lattice="16.290000149 0.0 0.0 0.0 16.290000149 0.0 0.0 0.0 29.1751946751" Properties=species:S:1:pos:R:3:initial_magmoms:R:1 pbc="T T T"
Si      -1.33793029       1.15380442       1.55829966       0.00000000
Si      -1.30774492      -1.44702442      -1.36966452       0.00000000
Si       1.42542388      -1.36590022       1.33618015       0.00000000
Si       0.83468332       1.99655129      -1.09216962       0.00000000
H        1.91016542       0.27546390      -1.89826070       0.00000000
Si      -0.91171873       3.53908398      -0.63893093       0.00000000
Si      -2.74396908       2.51874353       0.30565684       0.00000000
Si      -2.70829397      -0.02181231      -2.59096735       0.00000000
Si       0.08293239       2.61412148       2.78383289       0.00000000
Si      -2.63485865      -2.82885627       0.00746010       0.00000000
