10
Lattice="16.290000149 0.0 0.0 0.0 16.290000149 0.0 0.0 0.0 29.1751946751" Properties=species:S:1:pos:R:3:initial_magmoms:R:1 pbc="T T T"
Si      -1.50052078      -1.36075258       1.16318584       0.00000000
Si       1.33636645       1.28904400       1.42949701       0.00000000
Si       1.39445659      -1.35307999      -1.31171675       0.00000000
Si      -1.34161183       1.34732962      -1.38182475       0.00000000
H       -0.85695175      -2.20320623       2.24252216       0.00000000
Si      -0.00516393      -2.72420931      -2.62565082       0.00000000
Si       2.69289992       2.67156002       0.07795612       0.00000000
Si      -2.93190681      -0.13479975       2.45016202       0.00000000
Si       2.74722708      -2.66504402       0.11302470       0.00000000
Si       2.73453717      -0.00500103      -2.68481811       0.00000000
