10
Lattice="16.290000149 0.0 0.0 0.0 16.290000149 0.0 0.0 0.0 29.1751946751" Properties=species:S:1:pos:R:3:initial_magmoms:R:1 pbc="T T T"
Si       1.38354229      -1.34355034      -1.33596134       0.00000000
Si      -1.29679804       1.30346065      -1.46097705       0.00000000
Si       1.38779398       1.35868375       1.33073898       0.00000000
Si      -1.34918668      -1.39113343       1.34541410       0.00000000
Si      -2.77899258       0.05281218       2.46673353       0.00000000
Si      -2.65898414       2.67314015      -0.19871225       0.00000000
Si       2.71096553      -0.01480761       2.66582506       0.00000000
Si       0.01809819      -2.68323995      -2.70836250       0.00000000
Si      -2.70946685      -2.69910641      -0.04405454       0.00000000
Si       2.72790714       0.02805138      -2.69896808       0.00000000
