10
Lattice="16.290000149 0.0 0.0 0.0 16.290000149 0.0 0.0 0.0 29.1751946751" Properties=species:S:1:pos:R:3:initial_magmoms:R:1 pbc="T T T"
Si      -1.29950930      -1.29258545       1.46874640       0.00000000
Si      -1.45169048       1.38085444      -1.22690154       0.00000000
Si       1.36296253       1.39642768       1.31467220       0.00000000
Si       1.43494967      -1.30407479      -1.34953947       0.00000000
Si      -2.62321842      -2.62886442       0.12978002       0.00000000
Si      -0.12680848       2.70202232      -2.58947329       0.00000000
Si       0.08707515      -2.51171928      -2.82948915       0.00000000
Si       2.71250597      -2.68177385       0.03294463       0.00000000
Si       2.65658240       0.04166982       2.74571550       0.00000000
Si       0.01192563       2.72139113       2.72158761       0.00000000
