10
Lattice="16.290000149 0.0 0.0 0.0 16.290000149 0.0 0.0 0.0 29.1751946751" Properties=species:S:1:pos:R:3:initial_magmoms:R:1 pbc="T T T"
Si      -1.30853010       0.25337466       1.90263115       0.00000000
Si       2.21216573      -0.08236224       0.80290136       0.00000000
Si      -1.28538201      -0.17032824      -2.02572129       0.00000000
Si      -0.59144104       2.42351219       0.76255206       0.00000000
Si      -0.50437098      -2.00793800       1.68583027       0.00000000
H        2.04648014       0.71309476       2.07677788       0.00000000
H       -2.42188319       0.79750954      -1.73394017       0.00000000
H        0.23605839      -1.64095687      -2.66600011       0.00000000
H        0.63327376       2.74180251       1.64136728       0.00000000
H        0.77660947      -1.96872797       2.50474881       0.00000000
