10
Lattice="16.290000149 0.0 0.0 0.0 16.290000149 0.0 0.0 0.0 29.1751946751" Properties=species:S:1:pos:R:3:initial_magmoms:R:1 pbc="T T T"
H       -0.59192974      -0.11440467      -1.40169305       0.00000000
Si       0.48327543      -2.02940822       1.05523762       0.00000000
Si      -1.71543476       0.44421201       1.52516248       0.00000000
H        1.51746238      -0.84698227      -1.71337166       0.00000000
Si       1.90265573       1.49942935       0.31410015       0.00000000
Si       0.79817743      -0.93103867      -3.03775044       0.00000000
Si      -2.54993888       2.29936610       0.40250099       0.00000000
Si      -0.33405903       1.47212731       3.15413030       0.00000000
Si       2.07651890      -1.21718881       2.61625641       0.00000000
Si       0.93002869       2.95397976       1.82595873       0.00000000
