10
Lattice="16.290000149 0.0 0.0 0.0 16.290000149 0.0 0.0 0.0 29.1751946751" Properties=species:S:1:pos:R:3:initial_magmoms:R:1 pbc="T T T"
Si      -1.39470094       1.28357056      -1.35997252       0.00000000
Si       1.43835814      -1.36989127      -1.23451919       0.00000000
Si      -1.37686339      -1.31841487       1.35828036       0.00000000
Si       0.88021387       1.88913503       1.06760790       0.00000000
Si       0.05652630      -2.72077211      -2.57494433       0.00000000
Si      -2.43973703       0.14170671       2.84099293       0.00000000
Si      -2.57958668       2.73307107       0.05426586       0.00000000
Si      -0.01016496       2.61855236      -2.70171055       0.00000000
Si       2.78128947      -0.03761361      -2.60703705       0.00000000
Si      -2.74374102      -0.05957253      -2.67370237       0.00000000
