10
Lattice="16.290000149 0.0 0.0 0.0 16.290000149 0.0 0.0 0.0 29.1751946751" Properties=species:S:1:pos:R:3:initial_magmoms:R:1 pbc="T T T"
Si      -1.42416141       1.21678156      -1.38517989       0.00000000
Si       1.14813550      -1.42413697      -1.46520745       0.00000000
Si      -1.48337067      -1.19309590       1.39393245       0.00000000
Si       1.49374414       1.34394130       1.31031634       0.00000000
H        0.03806973      -2.66372453       0.75365363       0.00000000
H       -2.61987185      -0.22525812       1.68571357       0.00000000
H        2.05671026      -2.32282370      -0.65900930       0.00000000
Si      -0.19798866      -1.02276766       3.41965374       0.00000000
Si      -0.05668920       2.64342719      -2.68540162       0.00000000
Si      -2.85622347       2.46089774      -0.01312884       0.00000000
