10
Lattice="16.290000149 0.0 0.0 0.0 16.290000149 0.0 0.0 0.0 29.1751946751" Properties=species:S:1:pos:R:3:initial_magmoms:R:1 pbc="T T T"
Si       1.45644004      -1.18830664      -1.35023122       0.00000000
Si      -1.34701034      -1.46272798       1.23172099       0.00000000
Si      -1.35683972       1.25714818      -1.44478802       0.00000000
Si       1.42568452       1.35956341       1.27977838       0.00000000
Si       0.08806374      -2.50838309      -2.70448541       0.00000000
Si      -2.70611111      -0.00374670       2.52080071       0.00000000
Si       0.09682776       2.67276548       2.70082917       0.00000000
Si      -2.52860306       2.84282005      -0.16160461       0.00000000
Si       2.75418291      -0.03570768       2.64968505       0.00000000
Si       0.03818376      -2.80207551       2.60465314       0.00000000
