10
Lattice="16.290000149 0.0 0.0 0.0 16.290000149 0.0 0.0 0.0 29.1751946751" Properties=species:S:1:pos:R:3:initial_magmoms:R:1 pbc="T T T"
Si       1.37681452       1.34019460       1.33283959       0.00000000
Si       1.37855755      -1.36603054      -1.31200850       0.00000000
Si      -1.35384562      -1.35120664       1.36204396       0.00000000
Si      -1.35073423       1.37661904      -1.34217566       0.00000000
Si      -0.05792724       2.66160683       2.61561455       0.00000000
Si       0.00006516      -2.70141959      -2.65654735       0.00000000
Si       2.73489555      -0.01045818      -2.66967619       0.00000000
Si      -2.71573850       0.02114442      -2.68928192       0.00000000
Si       0.00876402      -2.67771764       2.74238077       0.00000000
Si       2.72611523       2.69801498      -0.02053934       0.00000000
