10
Lattice="16.290000149 0.0 0.0 0.0 16.290000149 0.0 0.0 0.0 29.1751946751" Properties=species:S:1:pos:R:3:initial_magmoms:R:1 pbc="T T T"
Si       1.72028918      -1.62486235      -0.11357903       0.00000000
Si      -2.05485320      -1.02539035      -0.72386576       0.00000000
Si       1.38873880       1.74715139      -0.92237378       0.00000000
Si      -1.01766889       1.25346664       1.82359554       0.00000000
H        0.76885543      -1.44106228      -2.65648900       0.00000000
H       -0.64435096       0.58764547      -3.09189961       0.00000000
Si       2.15474348      -1.87245407       2.16854554       0.00000000
Si      -2.37590792       2.66222585       0.49682439       0.00000000
Si      -3.48351065       0.90899830      -0.72354483       0.00000000
Si       3.58744899      -0.72646885      -1.39229864       0.00000000
