10
Lattice="16.290000149 0.0 0.0 0.0 16.290000149 0.0 0.0 0.0 29.1751946751" Properties=species:S:1:pos:R:3:initial_magmoms:R:1 pbc="T T T"
Si       1.31013955      -1.42711804       1.29756678       0.00000000
Si      -1.35097858      -1.38614869      -1.32318260       0.00000000
Si       1.37590228       1.33022512      -1.35565460       0.00000000
Si      -1.29893203       1.35751087       1.41791446       0.00000000
Si       2.65917962      -0.08397495       2.61129662       0.00000000
Si      -2.66930223       2.70024671       0.06100533       0.00000000
Si       0.00905724       2.68763825      -2.68388451       0.00000000
Si      -2.68984392      -0.02695995      -2.68633522       0.00000000
Si      -2.63037402      -0.03997566       2.76041104       0.00000000
Si       0.03749958      -2.73694809      -2.65689745       0.00000000
