10
Lattice="16.290000149 0.0 0.0 0.0 16.290000149 0.0 0.0 0.0 29.1751946751" Properties=species:S:1:pos:R:3:initial_magmoms:R:1 pbc="T T T"
Si      -1.15232203      -0.12937518       2.05705545       0.00000000
Si      -1.52953327       0.99720865      -1.50406881       0.00000000
Si       1.00144405      -1.77561002      -1.25593378       0.00000000
Si       1.52577028       1.84990871       0.42729990       0.00000000
H       -2.06018003      -2.79839397      -0.90670670       0.00000000
Si       2.29690631      -0.47133486      -2.75708507       0.00000000
H        0.77266729      -3.00288234       1.94744424       0.00000000
Si      -2.56028303       2.61984253      -0.18610857       0.00000000
Si      -0.24058701       2.43526461      -2.78620192       0.00000000
Si       0.40488795       0.66259576       3.64835809       0.00000000
