10
Lattice="16.290000149 0.0 0.0 0.0 16.290000149 0.0 0.0 0.0 29.1751946751" Properties=species:S:1:pos:R:3:initial_magmoms:R:1 pbc="T T T"
Si       1.41757210      -1.34340096       1.25347139       0.00000000
Si      -1.49781664       1.23647943       1.27955402       0.00000000
Si      -1.03770559      -1.85404311      -0.95376629       0.00000000
Si       0.86522707       1.72781841      -1.38177311       0.00000000
H       -2.05214906       0.77939832      -2.05537496       0.00000000
Si      -1.87372469      -0.60819530      -2.66539911       0.00000000
Si      -0.07837119       2.66584549       2.51547361       0.00000000
Si       2.64995948      -2.54454364      -0.34345331       0.00000000
Si      -0.04305447      -2.77900561       2.46899753       0.00000000
Si       2.58910004       2.66631790      -0.10321017       0.00000000
