10
Lattice="16.290000149 0.0 0.0 0.0 16.290000149 0.0 0.0 0.0 29.1751946751" Properties=species:S:1:pos:R:3:initial_magmoms:R:1 pbc="T T T"
H       -0.64537723      -0.82679896       1.07743994       0.00000000
Si       1.23743728      -1.36554184      -1.41849797       0.00000000
Si      -1.57882681       1.08624979      -1.32221982       0.00000000
Si       1.27580023       1.46148994       1.29966740       0.00000000
H       -2.08544582      -1.73711675       0.52789597       0.00000000
Si      -3.18001980       1.01245609       0.46872868       0.00000000
H       -1.27581652      -2.48409470       2.18320899       0.00000000
Si       2.50833422      -0.03101616       2.66325765       0.00000000
Si      -0.28163781       2.67625154      -2.59886799       0.00000000
Si       2.56060883      -2.73903321      -0.08341188       0.00000000
