10
Lattice="16.290000149 0.0 0.0 0.0 16.290000149 0.0 0.0 0.0 29.1751946751" Properties=species:S:1:pos:R:3:initial_magmoms:R:1 pbc="T T T"
Si      -0.74015245       1.32250366      -1.79091933       0.00000000
Si       1.99368425      -0.88803144      -0.97935293       0.00000000
Si      -1.51573564      -1.85047560      -0.06978707       0.00000000
Si      -0.62916868       1.07183314       2.04701918       0.00000000
H        2.46899387       1.32467023       1.04590155       0.00000000
H        1.24704838      -0.76073486       2.76925113       0.00000000
Si      -2.49478094       2.29599407      -0.52719577       0.00000000
Si       0.80396038      -2.03505352      -2.66988042       0.00000000
Si      -0.62977141      -0.40773870      -3.59648460       0.00000000
Si       2.57031767      -2.62040942       0.54362140       0.00000000
