10
Lattice="16.290000149 0.0 0.0 0.0 16.290000149 0.0 0.0 0.0 29.1751946751" Properties=species:S:1:pos:R:3:initial_magmoms:R:1 pbc="T T T"
H        1.31228983      -0.45540324       0.60690240       0.00000000
Si      -1.25665948       0.24555546       1.93854581       0.00000000
Si       0.26746551       2.03005982      -1.19650391       0.00000000
Si      -0.97368589      -1.99677935      -0.87651037       0.00000000
H        1.88522543      -0.58142269      -1.72352463       0.00000000
Si       3.07255467      -1.09514413      -0.93054283       0.00000000
H       -0.88446556      -2.81595459       1.69563314       0.00000000
Si      -1.92686267       2.75310777      -0.73104285       0.00000000
Si      -3.31797981      -0.44895240       1.03536931       0.00000000
H        1.07559613       0.16555527      -3.37883765       0.00000000
