10
Lattice="16.290000149 0.0 0.0 0.0 16.290000149 0.0 0.0 0.0 29.1751946751" Properties=species:S:1:pos:R:3:initial_magmoms:R:1 pbc="T T T"
Si      -1.34759026      -1.28941867       1.36930859       0.00000000
Si       1.25444404       1.31789359       1.47124672       0.00000000
Si       1.36433638      -1.37152027      -1.34205896       0.00000000
Si      -1.42685740       1.36394379      -1.29438669       0.00000000
Si       2.41608395       2.75757123      -0.03142168       0.00000000
Si       2.70798446       0.00700470      -2.65511777       0.00000000
Si      -0.04489524      -2.69721677      -2.69745097       0.00000000
Si      -0.11821653       2.71057457      -2.71676495       0.00000000
Si      -2.76007989      -2.68741019       0.07445510       0.00000000
Si      -2.77034259       0.01638774      -2.68187142       0.00000000
