10
Lattice="16.290000149 0.0 0.0 0.0 16.290000149 0.0 0.0 0.0 29.1751946751" Properties=species:S:1:pos:R:3:initial_magmoms:R:1 pbc="T T T"
Si       2.22967748      -0.51544818       0.33172196       0.00000000
Si      -1.04023054       0.69090289       2.07053439       0.00000000
Si      -0.05839965       2.06306336      -1.28680114       0.00000000
Si      -0.64959634      -1.77569147      -1.58864770       0.00000000
Si      -2.36556866       1.97959014      -0.92990098       0.00000000
H       -0.59992813      -2.86751244       1.51888981       0.00000000
Si       2.79026526      -1.55049850      -1.67699019       0.00000000
Si      -3.11360547       1.40494084       1.22573745       0.00000000
Si       3.47247417       1.27144266      -0.50977818       0.00000000
Si       1.17051796      -3.23794704      -1.74753581       0.00000000
