10
Lattice="16.290000149 0.0 0.0 0.0 16.290000149 0.0 0.0 0.0 29.1751946751" Properties=species:S:1:pos:R:3:initial_magmoms:R:1 pbc="T T T"
Si       1.28894626       1.43805596      -1.28213311       0.00000000
Si      -1.03074976       1.62263388       1.31796024       0.00000000
Si       1.52953327      -0.99720865       1.50406881       0.00000000
Si      -1.57547107      -1.31013955      -1.20604420       0.00000000
Si       2.47867013       2.58507804       0.40839438       0.00000000
Si      -1.55401714       0.36748611       3.24985411       0.00000000
Si       2.59390559       0.02396259      -2.61660651       0.00000000
H        0.67272814      -2.26432631      -2.83883397       0.00000000
Si       3.05530356       0.85270006       1.93136871       0.00000000
Si       0.37721124      -1.12658383       3.56112426       0.00000000
