10
Lattice="16.290000149 0.0 0.0 0.0 16.290000149 0.0 0.0 0.0 29.1751946751" Properties=species:S:1:pos:R:3:initial_magmoms:R:1 pbc="T T T"
Si      -1.45644004       1.18830664       1.35023122       0.00000000
Si      -1.36837630      -1.32007645      -1.35425419       0.00000000
Si       1.26982180      -1.50096061       1.33720158       0.00000000
Si       1.30829878       1.36806679      -1.49199028       0.00000000
Si       2.15663312      -0.50624433      -2.60963364       0.00000000
Si       0.35873838      -2.09709317      -2.72079113       0.00000000
Si      -0.03075552       2.54787005       2.63000959       0.00000000
Si      -2.81327977       2.44545482      -0.09455681       0.00000000
Si       2.68213223      -0.20346210       2.67803196       0.00000000
Si      -2.80345038      -0.27442134       2.58195221       0.00000000
