10
Lattice="16.290000149 0.0 0.0 0.0 16.290000149 0.0 0.0 0.0 29.1751946751" Properties=species:S:1:pos:R:3:initial_magmoms:R:1 pbc="T T T"
Si       1.36004234       1.35018037      -1.35396243       0.00000000
Si       1.37037020      -1.34273584       1.35690913       0.00000000
Si      -1.33875080       1.36303318       1.37289714       0.00000000
Si      -1.34815390      -1.37824804      -1.35168677       0.00000000
Si      -2.68826705      -0.04761567       2.67802029       0.00000000
Si       2.66930223      -2.70024671      -0.06100533       0.00000000
Si      -0.02889032       2.69949737      -2.68420544       0.00000000
Si      -2.69102006      -0.02054169      -2.72087866       0.00000000
Si       2.67835947      -0.01260846      -2.74488984       0.00000000
Si       2.72696883       0.03855843       2.70795404       0.00000000
