10
Lattice="16.290000149 0.0 0.0 0.0 16.290000149 0.0 0.0 0.0 29.1751946751" Properties=species:S:1:pos:R:3:initial_magmoms:R:1 pbc="T T T"
Si       1.30479643      -1.42337134      -1.30636340       0.00000000
Si       1.41231043       1.29749851       1.34083039       0.00000000
Si      -1.30525255      -1.48489867       1.26685960       0.00000000
Si      -1.26982180       1.50096061      -1.33720158       0.00000000
Si       2.56888415       0.05848110      -2.63453496       0.00000000
Si      -2.68807808      -0.11280825       2.61768278       0.00000000
Si       0.02792106       2.65355957       2.66271470       0.00000000
Si      -2.63819810       0.18088416      -2.69145576       0.00000000
Si      -0.07657929      -2.45128664      -2.93533122       0.00000000
Si      -2.72626184       2.68926725       0.01302964       0.00000000
