10
Lattice="16.290000149 0.0 0.0 0.0 16.290000149 0.0 0.0 0.0 29.1751946751" Properties=species:S:1:pos:R:3:initial_magmoms:R:1 pbc="T T T"
Si       1.34759026       1.28941867      -1.36930859       0.00000000
Si      -1.52570512       1.26516286       1.21599294       0.00000000
Si       1.03628836      -0.82383418       1.94980744       0.00000000
Si      -1.41248962      -1.39799152      -1.29485349       0.00000000
Si      -0.79355107      -2.11724390       2.58950275       0.00000000
Si      -2.44605755      -0.46512837       2.49596708       0.00000000
Si       2.60203430       2.60731226       0.10193813       0.00000000
Si      -0.07926714       2.65336247      -2.66369527       0.00000000
Si       2.71192664      -0.08210160      -2.71136754       0.00000000
Si      -0.07327242      -2.72844470      -2.70279003       0.00000000
