10
Lattice="16.290000149 0.0 0.0 0.0 16.290000149 0.0 0.0 0.0 29.1751946751" Properties=species:S:1:pos:R:3:initial_magmoms:R:1 pbc="T T T"
Si      -1.56044355       1.07036704      -1.36277334       0.00000000
Si      -0.90039718      -1.43172811       1.64787335       0.00000000
Si       1.38277666      -1.48853134      -1.22401612       0.00000000
Si       0.51815232       1.84016729       1.43979586       0.00000000
H        0.32431761      -1.11343780       2.52668856       0.00000000
Si      -1.74601109       2.19229193       2.06090658       0.00000000
Si      -0.24475725       2.55195884      -2.64318511       0.00000000
Si      -3.06103764       2.10742103       0.09210609       0.00000000
Si       2.70661610      -0.13600521      -2.61319301       0.00000000
Si      -0.11096748      -2.83247265      -2.53433246       0.00000000
