10
Lattice="16.290000149 0.0 0.0 0.0 16.290000149 0.0 0.0 0.0 29.1751946751" Properties=species:S:1:pos:R:3:initial_magmoms:R:1 pbc="T T T"
Si      -1.35516511      -1.34394130       1.37604806       0.00000000
Si       1.33490035       1.35127180       1.39428255       0.00000000
Si      -1.37689597       1.34700382      -1.35941820       0.00000000
Si       1.36282141      -1.37355652      -1.34987791       0.00000000
Si       2.71415837      -2.69250896       0.05837956       0.00000000
Si       2.69894351       2.71275743       0.06468141       0.00000000
Si      -2.71528238      -2.69824304       0.02234820       0.00000000
Si      -0.02344131       2.74585872      -2.67843166       0.00000000
Si       2.73191447      -0.02388114      -2.69929193       0.00000000
Si      -2.72815148       2.71625978      -0.00023340       0.00000000
