10
Lattice="16.290000149 0.0 0.0 0.0 16.290000149 0.0 0.0 0.0 29.1751946751" Properties=species:S:1:pos:R:3:initial_magmoms:R:1 pbc="T T T"
Si       2.24603264      -0.50616288       0.27325487       0.00000000
Si      -1.57392352      -1.68537808      -0.44375471       0.00000000
Si      -0.72915670       0.63550549       2.17915860       0.00000000
Si      -0.07519464       1.45782469      -1.93046428       0.00000000
H        0.26575506      -1.09010237      -2.82249586       0.00000000
Si      -2.82717840      -0.57956563      -2.04830289       0.00000000
Si      -1.29863881       3.31843593      -1.27101736       0.00000000
Si       1.30689784      -2.20857867      -2.84332695       0.00000000
Si       3.18063556      -1.31319067      -1.72489586       0.00000000
H       -0.00592956       3.88544197      -0.36571107       0.00000000
