10
Lattice="16.290000149 0.0 0.0 0.0 16.290000149 0.0 0.0 0.0 29.1751946751" Properties=species:S:1:pos:R:3:initial_magmoms:R:1 pbc="T T T"
Si       1.36404316       1.36148563      -1.32960115       0.00000000
Si      -1.35006634       1.36495540       1.35597552       0.00000000
Si       1.38355858      -1.33812577       1.35046141       0.00000000
Si      -1.33490035      -1.35127180      -1.39428255       0.00000000
Si       2.70094718      -0.07951149      -2.61847372       0.00000000
Si      -2.69006546      -2.69521310      -0.01823450       0.00000000
Si      -0.02067201       2.71888247      -2.66848001       0.00000000
Si       0.02313180      -2.70047477       2.69453345       0.00000000
Si      -2.71871957       0.02114442       2.69888056       0.00000000
Si       0.01632258       2.72704376       2.70856672       0.00000000
