10
Lattice="16.290000149 0.0 0.0 0.0 16.290000149 0.0 0.0 0.0 29.1751946751" Properties=species:S:1:pos:R:3:initial_magmoms:R:1 pbc="T T T"
Si      -0.97262704       1.45455040       1.51185859       0.00000000
Si       1.56623464      -1.27961209       1.12622086       0.00000000
Si       1.62271207       1.02765466      -1.39323225       0.00000000
Si      -1.90265573      -1.49942935      -0.31410015       0.00000000
H       -0.38519334      -2.34641162      -2.02747180       0.00000000
H        0.76646080      -0.71190559      -3.15071680       0.00000000
H       -2.49458546      -1.61383402      -1.71579320       0.00000000
Si       0.17386317      -2.71661816       2.30215626       0.00000000
Si      -2.65469987       2.39078558       0.19955833       0.00000000
H       -2.11695068       2.65127897      -1.18527146       0.00000000
