10
Lattice="16.290000149 0.0 0.0 0.0 16.290000149 0.0 0.0 0.0 29.1751946751" Properties=species:S:1:pos:R:3:initial_magmoms:R:1 pbc="T T T"
Si       1.44252838      -1.14517072      -1.46599518       0.00000000
Si      -1.31588666      -1.41894046       1.35723006       0.00000000
Si      -1.84049634       1.17210949      -0.93961632       0.00000000
Si       1.44671491       1.43676824       1.27556869       0.00000000
H        0.80088157       2.60332121      -1.45248707       0.00000000
Si      -0.48009888       2.56411118      -2.27140561       0.00000000
Si      -2.77509927       1.97913728       1.05853441       0.00000000
Si      -0.07521093      -2.42997932      -2.68429296       0.00000000
Si      -2.48765000       0.16673141       2.64041347       0.00000000
Si       2.80569189      -2.49632849      -0.04020342       0.00000000
