10
Lattice="16.290000149 0.0 0.0 0.0 16.290000149 0.0 0.0 0.0 29.1751946751" Properties=species:S:1:pos:R:3:initial_magmoms:R:1 pbc="T T T"
Si       1.36042678       1.36234900      -1.34407204       0.00000000
Si      -1.36500427      -1.35547462      -1.34710626       0.00000000
Si       1.35073423      -1.37661904       1.34217566       0.00000000
Si      -1.37500633       1.36420606       1.33257702       0.00000000
Si      -0.02313180       2.70047477      -2.69453345       0.00000000
Si       2.72968274      -0.01681128      -2.66655444       0.00000000
Si       0.00487071      -2.71891505      -2.68350523       0.00000000
Si       2.72754875      -0.03642444       2.67501525       0.00000000
Si      -0.02627577       2.72583830       2.68085029       0.00000000
Si      -2.71340903      -2.70296714       0.03133416       0.00000000
