10
Lattice="16.290000149 0.0 0.0 0.0 16.290000149 0.0 0.0 0.0 29.1751946751" Properties=species:S:1:pos:R:3:initial_magmoms:R:1 pbc="T T T"
H       -1.04114278       1.11847630       0.02083109       0.00000000
Si      -0.83875582      -1.92851122       1.01625956       0.00000000
Si       0.28212651      -0.74119826      -2.20479864       0.00000000
Si       1.87373772       0.89538800       1.11843109       0.00000000
Si       2.55625126      -1.20489312      -2.09755062       0.00000000
H        0.18080271       3.20388139      -1.70251849       0.00000000
Si      -2.39596580      -2.72048215      -0.57504309       0.00000000
Si       0.93913480       1.70241579       3.11658182       0.00000000
Si      -2.88082137       0.52320060       2.39957224       0.00000000
Si       0.92882323      -3.05871143       2.06857965       0.00000000
