10
Lattice="16.290000149 0.0 0.0 0.0 16.290000149 0.0 0.0 0.0 29.1751946751" Properties=species:S:1:pos:R:3:initial_magmoms:R:1 pbc="T T T"
Si      -1.40402371       1.31911534       1.31370067       0.00000000
Si       1.37024477      -1.23890338       1.44530997       0.00000000
Si       1.33144199       1.39748653      -1.34249658       0.00000000
Si      -1.39164331      -1.37523439      -1.31224191       0.00000000
Si       2.56856976      -2.64099998      -0.03077983       0.00000000
Si      -0.11489826       2.72723924       2.63478266       0.00000000
Si       2.63037402       0.03997566      -2.76041104       0.00000000
Si       0.00277256      -2.66554901       2.74553169       0.00000000
Si      -2.73144695      -0.00962739      -2.68808574       0.00000000
Si      -2.72719526       2.69260670      -0.02138542       0.00000000
