10
Lattice="16.290000149 0.0 0.0 0.0 16.290000149 0.0 0.0 0.0 29.1751946751" Properties=species:S:1:pos:R:3:initial_magmoms:R:1 pbc="T T T"
Si       0.74015245      -1.32250366       1.79091933       0.00000000
Si      -1.75462850       0.97349041       1.26372356       0.00000000
Si       1.38784285       1.81900658      -0.76336897       0.00000000
Si       0.11038104      -1.73024237      -1.80556527       0.00000000
H       -2.14482287      -0.24928587      -1.30952861       0.00000000
Si       2.88740253       0.55928458      -2.03695374       0.00000000
Si       2.73383669      -2.21053510       0.81156639       0.00000000
Si      -0.77558320      -3.17297926       1.72113226       0.00000000
Si      -2.78839191       0.59316778      -2.38886494       0.00000000
Si       1.54411282      -3.35755718      -0.87896109       0.00000000
