10
Lattice="16.290000149 0.0 0.0 0.0 16.290000149 0.0 0.0 0.0 29.1751946751" Properties=species:S:1:pos:R:3:initial_magmoms:R:1 pbc="T T T"
Si       2.20364606      -0.38359692       0.80316393       0.00000000
Si       0.05455521       2.29068353       0.66995000       0.00000000
Si       0.14571405      -0.39719907      -2.36062335       0.00000000
Si      -1.52091586      -1.37389210       1.28306671       0.00000000
H       -2.16674921      -0.20733912      -1.44498904       0.00000000
H       -0.89687854       2.47448360      -1.87295997       0.00000000
Si       0.48900951       2.04309182       2.95207457       0.00000000
Si      -0.73119295       1.67902661      -3.14683650       0.00000000
Si       2.12123495       0.30737601       3.03390807       0.00000000
Si       2.44626932      -0.35287398      -2.81143846       0.00000000
