10
Lattice="16.290000149 0.0 0.0 0.0 16.290000149 0.0 0.0 0.0 29.1751946751" Properties=species:S:1:pos:R:3:initial_magmoms:R:1 pbc="T T T"
Si       0.68810590      -2.05046304      -0.76576133       0.00000000
Si      -0.61299271      -0.51034941       2.18288807       0.00000000
Si      -1.82078219       0.88972723      -1.14533062       0.00000000
Si       1.76590118       1.48379095      -0.33183866       0.00000000
H        1.37570680       0.26101467      -2.90509083       0.00000000
Si       0.16040763       1.53279127       3.06252019       0.00000000
Si      -2.84276793      -1.25884234      -1.54278429       0.00000000
Si       2.15197418       2.13082976       1.89055261       0.00000000
Si      -0.69924826       2.32942115      -2.69745097       0.00000000
Si       0.78843601       3.34300125      -1.22888837       0.00000000
