10
Lattice="16.290000149 0.0 0.0 0.0 16.290000149 0.0 0.0 0.0 29.1751946751" Properties=species:S:1:pos:R:3:initial_magmoms:R:1 pbc="T T T"
Si       1.32488200       1.32116788      -1.36257174       0.00000000
Si      -1.25698528       1.40463784       1.36115412       0.00000000
Si      -1.72387298      -0.93849949      -1.27856294       0.00000000
Si       1.45169048      -1.38085444       1.22690154       0.00000000
Si      -3.42837714       0.73119295      -1.15243769       0.00000000
Si      -2.57207699       2.66833460      -0.11158053       0.00000000
Si      -2.58910004      -2.66631790       0.10321017       0.00000000
Si       2.58439060      -0.10979460      -2.68980124       0.00000000
Si      -2.66747123      -0.00047241       2.61868378       0.00000000
Si       2.81465301       0.01557324       2.54157374       0.00000000
