10
Lattice="16.290000149 0.0 0.0 0.0 16.290000149 0.0 0.0 0.0 29.1751946751" Properties=species:S:1:pos:R:3:initial_magmoms:R:1 pbc="T T T"
Si      -1.36296253      -1.39642768      -1.31467220       0.00000000
Si       1.29361986      -1.35475786       1.43104330       0.00000000
Si      -1.35103690       1.32496345       1.40691541       0.00000000
Si       1.37339199       1.36107838      -1.36366319       0.00000000
Si      -2.66247183      -2.68901313       0.15407420       0.00000000
Si      -2.81465301      -0.01557324      -2.54157374       0.00000000
Si       0.07198714      -2.70050247      -2.66421167       0.00000000
Si       2.69398973       2.69970914       0.03229694       0.00000000
Si       2.65038140      -2.75020000       0.14269588       0.00000000
Si      -2.68096098       2.73329912       0.09528619       0.00000000
