10
Lattice="16.290000149 0.0 0.0 0.0 16.290000149 0.0 0.0 0.0 29.1751946751" Properties=species:S:1:pos:R:3:initial_magmoms:R:1 pbc="T T T"
Si       1.34542369       1.33018440      -1.34741844       0.00000000
Si      -1.35676153       1.39544214       1.28834742       0.00000000
Si       1.37029852      -1.36066299       1.31337974       0.00000000
Si      -1.30083796      -1.32800154      -1.42442345       0.00000000
Si      -2.68119882       0.01163595       2.65044974       0.00000000
Si      -0.01744659      -2.72021011       2.61707331       0.00000000
Si       0.03578913       2.73814540       2.61826950       0.00000000
Si       2.72580573       0.01100064       2.65138334       0.00000000
Si      -2.57839426       0.04969753      -2.80690755       0.00000000
Si      -2.65038140       2.75020000      -0.14269588       0.00000000
