10
Lattice="16.290000149 0.0 0.0 0.0 16.290000149 0.0 0.0 0.0 29.1751946751" Properties=species:S:1:pos:R:3:initial_magmoms:R:1 pbc="T T T"
Si      -1.38893428      -1.35971002       1.31337974       0.00000000
Si      -1.36946773       1.34197021      -1.35343728       0.00000000
Si       1.35231436      -1.36979353      -1.35092821       0.00000000
Si       1.37705887       1.36594909       1.33639897       0.00000000
Si       2.77208562      -0.08447994       2.53033546       0.00000000
Si       0.00760743       2.69739596      -2.68575172       0.00000000
Si      -0.06985152      -2.80056054       2.59031966       0.00000000
Si      -2.68964192       2.71041167       0.03040055       0.00000000
Si      -2.67993308       0.00788436       2.72575091       0.00000000
Si       2.72736957      -0.02717172      -2.69304552       0.00000000
