10
Lattice="16.290000149 0.0 0.0 0.0 16.290000149 0.0 0.0 0.0 29.1751946751" Properties=species:S:1:pos:R:3:initial_magmoms:R:1 pbc="T T T"
Si      -1.33636645      -1.28904400      -1.42949701       0.00000000
Si       1.35653347       1.38251602      -1.35154089       0.00000000
Si      -1.12145248       1.11544147       1.75821393       0.00000000
Si       1.33934752      -1.42395778       1.35918479       0.00000000
Si       2.39963105       0.26539668       2.72852256       0.00000000
Si       0.74249821       1.96006169       3.00769999       0.00000000
Si      -2.78058900      -0.41026365       2.48922761       0.00000000
Si       0.05809014      -2.64212399      -2.74121377       0.00000000
Si       2.74175364       0.03305241      -2.70710796       0.00000000
Si      -0.04849533      -3.24296436       2.12255376       0.00000000
