10
Lattice="10.86 0.0 0.0 0.0 10.86 0.0 0.0 0.0 10.86" Properties=species:S:1:pos:R:3:initial_magmoms:R:1 pbc="T T T"
Si      -0.90543078      -1.38546450       1.49684466       0.00000000
Si      -1.72695720       1.67434050      -0.82176534       0.00000000
Si       1.80956922      -1.38546450      -1.21815534       0.00000000
Si       1.80956922       1.32953550       1.49684466       0.00000000
Si       0.09026832       2.31446148      -2.10586260       0.00000000
Si      -2.33457420      -0.04997772      -2.42250762       0.00000000
Si      -2.26293078      -2.74296450       0.13934466       0.00000000
Si      -2.31906612      -0.13243770       2.82229680       0.00000000
Si      -3.20080038       1.49355408       1.28339136       0.00000000
Si       0.45206922      -2.74296450      -2.57565534       0.00000000
