10
Lattice="16.28999089631971 0.0 0.0 0.0 16.28999089631971 0.0 0.0 0.0 34.40785480372833" Properties=species:S:1:pos:R:3:initial_magmoms:R:1 pbc="T T T"
Si      -2.11496558      -0.10422342       0.96073666       0.00000000
Si       1.29997947      -1.06013691       1.64404263       0.00000000
Si      -0.05559125      -1.00561428      -2.12654425       0.00000000
Si       0.07543736       2.30492816      -0.56298163       0.00000000
Si      -3.41164958       0.10932219      -1.04400371       0.00000000
Si       3.17277561       0.34490817       1.69018359       0.00000000
Si      -2.35045382      -1.36736631      -2.48775811       0.00000000
Si       0.33864141       0.75291144      -3.68346614       0.00000000
Si       1.41760956       2.53484522      -2.50306961       0.00000000
Si       0.40813455      -0.50357277       3.82206106       0.00000000
