10
Lattice="16.28999089631971 0.0 0.0 0.0 16.28999089631971 0.0 0.0 0.0 34.40785480372833" Properties=species:S:1:pos:R:3:initial_magmoms:R:1 pbc="T T T"
Si      -0.24418710      -1.36866951       1.81088714       0.00000000
Si      -1.46350989       1.50236154      -1.02449445       0.00000000
Si       1.92396303       0.72505161      -1.16130016       0.00000000
Si       0.70737696       0.45809109       2.88809858       0.00000000
Si       0.30656151       1.60767639      -2.60990606       0.00000000
Si       2.72345994       1.12140360       1.86789995       0.00000000
Si       1.38222279      -3.05807283       1.70600609       0.00000000
Si       2.88960165       2.48328574       0.01073526       0.00000000
Si       0.64597995      -3.92162202      -0.52086640       0.00000000
Si      -3.64469921       0.49961430      -2.00570379       0.00000000
