10
Lattice="16.28999089631971 0.0 0.0 0.0 16.28999089631971 0.0 0.0 0.0 34.40785480372833" Properties=species:S:1:pos:R:3:initial_magmoms:R:1 pbc="T T T"
Si       0.17244594       2.04386462      -1.10404545       0.00000000
Si       0.08483832      -1.45603278      -1.82454634       0.00000000
Si       1.61740152      -0.88262478       1.44860590       0.00000000
Si      -1.77007140      -0.10531485       1.58541161       0.00000000
Si      -0.30656151      -1.60767639       2.60990606       0.00000000
Si      -1.38158748       1.50042859      -2.80100739       0.00000000
Si      -1.84674843      -0.81969651      -2.97782946       0.00000000
Si       2.58304014       0.87560935       2.62064132       0.00000000
Si      -2.13605557       2.29603382       2.17516257       0.00000000
Si       2.41025211       2.33739413      -1.91589924       0.00000000
