10
Lattice="16.28999089631971 0.0 0.0 0.0 16.28999089631971 0.0 0.0 0.0 34.40785480372833" Properties=species:S:1:pos:R:3:initial_magmoms:R:1 pbc="T T T"
Si      -1.34278470       1.31260502      -1.35236364       0.00000000
Si       1.33203330       1.36644835       1.36244859       0.00000000
Si      -1.38378663      -1.34835249       1.36059056       0.00000000
Si       1.33954299      -1.32579084      -1.51384667       0.00000000
Si      -2.11585923      -0.65400753      -2.49224662       0.00000000
Si      -0.47465802      -2.35665462      -2.71871894       0.00000000
Si       2.69399133      -2.70011298      -0.02697921       0.00000000
Si       2.67581169       2.73399385      -0.01539064       0.00000000
Si       2.69206911       0.01026273       2.72049297       0.00000000
Si      -0.02401146      -2.70478821       2.71921988       0.00000000
