10
Lattice="16.28999089631971 0.0 0.0 0.0 16.28999089631971 0.0 0.0 0.0 34.40785480372833" Properties=species:S:1:pos:R:3:initial_magmoms:R:1 pbc="T T T"
Si       1.35723393       1.35775521      -1.35794116       0.00000000
Si      -1.35769005      -1.35762489      -1.35821642       0.00000000
Si       1.35922131      -1.35413883       1.36028089       0.00000000
Si      -1.35759231       1.36042677       1.36114109       0.00000000
Si       2.71640637       2.71265967      -0.00027526       0.00000000
Si      -2.71463076      -2.71472850       0.00041289       0.00000000
Si      -2.71608872       2.71410948      -0.00003441       0.00000000
Si       2.71494027       0.00032580      -2.71536620       0.00000000
Si      -2.71498914      -0.00024435      -2.71557264       0.00000000
Si      -0.00076563      -2.71467963      -2.71595113       0.00000000
