10
Lattice="16.28999089631971 0.0 0.0 0.0 16.28999089631971 0.0 0.0 0.0 34.40785480372833" Properties=species:S:1:pos:R:3:initial_magmoms:R:1 pbc="T T T"
Si      -0.85861332       0.58443633       2.06722507       0.00000000
Si       1.80946062      -1.18627038      -0.83394364       0.00000000
Si       0.27883593       2.17398195      -0.80975491       0.00000000
Si      -1.31595507      -2.26271358      -0.37941563       0.00000000
Si      -1.69456725      -0.58551147      -2.31048874       0.00000000
Si      -0.08777052       1.18218159      -2.89432155       0.00000000
Si       0.89252910      -3.22831962      -0.15476662       0.00000000
Si       1.34166069      -0.75455280      -3.13273371       0.00000000
Si      -2.69048409       1.95294294       1.47898806       0.00000000
Si      -1.57468914       3.38867838      -0.01431368       0.00000000
