10
Lattice="16.28999089631971 0.0 0.0 0.0 16.28999089631971 0.0 0.0 0.0 34.40785480372833" Properties=species:S:1:pos:R:3:initial_magmoms:R:1 pbc="T T T"
Si       2.06754309       0.49239783      -0.90179597       0.00000000
Si      -1.08778104       2.05118793       0.10714612       0.00000000
Si       0.38584494      -0.84520665       2.14849647       0.00000000
Si      -1.53301932      -1.32765129      -1.20960881       0.00000000
Si      -3.25950845       1.19842272       0.32522323       0.00000000
Si       0.85512726      -3.06157518       1.67015821       0.00000000
Si       2.58999597       2.53561995       0.27946075       0.00000000
Si       1.56976956       1.11959541      -3.10623964       0.00000000
Si      -0.45685305       3.00035736       2.16511547       0.00000000
Si      -3.36489009       0.04085532      -1.79784583       0.00000000
