10
Lattice="16.28999089631971 0.0 0.0 0.0 16.28999089631971 0.0 0.0 0.0 34.40785480372833" Properties=species:S:1:pos:R:3:initial_magmoms:R:1 pbc="T T T"
Si      -1.35668007       1.35633798      -1.36262063       0.00000000
Si       1.36120869      -1.36202319      -1.36176043       0.00000000
Si       1.34161182       1.38341196       1.37693430       0.00000000
Si      -1.37187864      -1.36288656       1.38116647       0.00000000
Si       2.52988587      -0.11564271       2.74337420       0.00000000
Si      -2.71067229       2.70954828      -0.00664072       0.00000000
Si      -2.71278999      -2.71425609      -0.00034408       0.00000000
Si       2.71609686       2.71482624      -0.00137631       0.00000000
Si       0.00195480       2.71248048      -2.71925428       0.00000000
Si      -2.71278999      -0.00182448      -2.71904784       0.00000000
