10
Lattice="16.28999089631971 0.0 0.0 0.0 16.28999089631971 0.0 0.0 0.0 34.40785480372833" Properties=species:S:1:pos:R:3:initial_magmoms:R:1 pbc="T T T"
Si       0.73880037      -2.21421825      -0.06757706       0.00000000
Si      -2.09189664      -0.15126894       1.04599937       0.00000000
Si       1.34097651       0.97591761       1.74200185       0.00000000
Si      -0.05426199       0.38393901      -2.44818905       0.00000000
Si      -1.22653926      -3.07191933      -1.04792621       0.00000000
Si       0.68098716       2.61130329      -2.27195192       0.00000000
Si      -3.08006433      -1.85722290      -0.25248498       0.00000000
Si       3.40086330       1.21929021       0.60485602       0.00000000
Si       2.70120780      -2.16894834      -1.33812222       0.00000000
Si       1.23657390      -2.84141583       2.13686661       0.00000000
