10
Lattice="16.28999089631971 0.0 0.0 0.0 16.28999089631971 0.0 0.0 0.0 34.40785480372833" Properties=species:S:1:pos:R:3:initial_magmoms:R:1 pbc="T T T"
Si      -0.73524915      -2.22736428      -0.17623713       0.00000000
Si      -1.43167923       1.45319832       1.20895506       0.00000000
Si       2.12970573      -0.00977400       1.06588712       0.00000000
Si      -0.98575677      -1.22274369      -2.76271143       0.00000000
Si       0.65647071       2.78339085      -1.58640944       0.00000000
Si      -0.68098716      -2.61130329       2.27195192       0.00000000
Si      -0.08159661       2.01631104       3.10820089       0.00000000
Si       3.63288177      -0.54719739      -0.64673040       0.00000000
Si       1.23869160      -3.37768263      -1.00040894       0.00000000
Si      -1.10100852       3.56897610       0.13911103       0.00000000
