10
Lattice="16.28999089631971 0.0 0.0 0.0 16.28999089631971 0.0 0.0 0.0 34.40785480372833" Properties=species:S:1:pos:R:3:initial_magmoms:R:1 pbc="T T T"
Si       2.05988679       0.24337260      -1.13714583       0.00000000
Si      -1.34097651      -0.97591761      -1.74200185       0.00000000
Si       0.41805027      -1.77411132       1.57612149       0.00000000
Si      -1.05681375       2.02624794       0.77593197       0.00000000
Si       1.46971638       1.62561168      -2.94806665       0.00000000
Si      -3.43287315      -1.12718655      -0.69600248       0.00000000
Si      -0.60217614      -3.19013586      -1.80957891       0.00000000
Si       2.86179462      -1.90260684      -1.70126292       0.00000000
Si      -0.74158596       3.65169672      -0.90575288       0.00000000
Si      -0.10440261      -3.81733344       0.39486476       0.00000000
