10
Lattice="16.28999089631971 0.0 0.0 0.0 16.28999089631971 0.0 0.0 0.0 34.40785480372833" Properties=species:S:1:pos:R:3:initial_magmoms:R:1 pbc="T T T"
Si       0.68658115       1.44645426       1.67655807       0.00000000
Si      -2.10590671       0.87851970      -0.50366246       0.00000000
Si       1.34217220       0.22991706      -1.94008798       0.00000000
Si      -0.07543736      -2.30492816       0.56298163       0.00000000
Si       0.26320405      -1.55201672      -3.12048450       0.00000000
Si      -2.19040294      -2.40915158       1.52371829       0.00000000
Si       2.23971862       0.14993316       2.81236199       0.00000000
Si       1.79951395       3.07706697       0.50655272       0.00000000
Si      -0.13102861      -3.31054244      -1.56356261       0.00000000
Si      -1.68801934       3.07770228      -1.26356036       0.00000000
