10
Lattice="16.28999089631971 0.0 0.0 0.0 16.28999089631971 0.0 0.0 0.0 34.40785480372833" Properties=species:S:1:pos:R:3:initial_magmoms:R:1 pbc="T T T"
Si      -1.35216774      -1.35858600       1.36172258       0.00000000
Si       1.36153449       1.35405738       1.36027745       0.00000000
Si       1.30396563      -1.35873261      -1.43514899       0.00000000
Si      -1.38662109       1.38508983      -1.47236110       0.00000000
Si       0.62946189       2.04840234      -2.49255973       0.00000000
Si      -0.71177526      -2.13107409      -2.65445359       0.00000000
Si      -2.33818515      -0.44167077      -2.54957254       0.00000000
Si       2.27066310       0.34575525      -2.71903205       0.00000000
Si      -2.70769122      -0.00420282       2.71993900       0.00000000
Si       0.00785178       2.70947815       2.71897558       0.00000000
