10
Lattice="16.28999089631971 0.0 0.0 0.0 16.28999089631971 0.0 0.0 0.0 34.40785480372833" Properties=species:S:1:pos:R:3:initial_magmoms:R:1 pbc="T T T"
Si      -1.35399222       1.35321030       1.35597991       0.00000000
Si      -1.35610992      -1.35816246      -1.35642721       0.00000000
Si       1.35863487       1.35614250      -1.35663366       0.00000000
Si       1.35668007      -1.35633798       1.36262063       0.00000000
Si      -2.69816157      -0.00337203       2.71739626       0.00000000
Si       0.00957852       2.70622512       2.71794679       0.00000000
Si      -2.71135321       2.71350675       0.00086020       0.00000000
Si       0.00122175       2.71360449      -2.71357699       0.00000000
Si      -2.71323471      -0.00122175      -2.71395547       0.00000000
Si       2.71617831      -0.00099369      -2.71371462       0.00000000
