10
Lattice="16.28999089631971 0.0 0.0 0.0 16.28999089631971 0.0 0.0 0.0 34.40785480372833" Properties=species:S:1:pos:R:3:initial_magmoms:R:1 pbc="T T T"
Si      -1.36182771       1.18910484      -1.55268972       0.00000000
Si      -1.48048407      -1.27477395       1.43893729       0.00000000
Si       0.93882528       1.86264747       1.39971232       0.00000000
Si       1.32688566      -1.49004630      -1.53108158       0.00000000
Si      -2.60956026       2.64298622      -0.22602532       0.00000000
Si      -0.12699684      -2.79614592       2.65594380       0.00000000
Si      -0.81063927       3.60673536       1.12403643       0.00000000
Si      -0.01394424       2.55246082      -2.90990831       0.00000000
Si       2.90056482       2.61421710       0.07628226       0.00000000
Si       2.51515971      -2.98910097      -0.16464168       0.00000000
