10
Lattice="16.28999089631971 0.0 0.0 0.0 16.28999089631971 0.0 0.0 0.0 34.40785480372833" Properties=species:S:1:pos:R:3:initial_magmoms:R:1 pbc="T T T"
Si      -1.87181874       0.35587134      -1.39761344       0.00000000
Si      -0.33067071      -2.11577778       1.06984403       0.00000000
Si      -0.19282473       1.63549061       1.73990297       0.00000000
Si       1.75747923      -0.78558525      -1.72552047       0.00000000
Si       1.01941191      -1.55266506       2.96908986       0.00000000
Si      -3.48027705       0.81916287       0.33485743       0.00000000
Si      -1.32572907       2.51093150      -2.40851677       0.00000000
Si       1.10100852      -3.56897610      -0.13911103       0.00000000
Si      -2.40130890       2.60109665       1.51525396       0.00000000
Si       0.66960045       0.65534085       3.76945142       0.00000000
