10
Lattice="16.28999089631971 0.0 0.0 0.0 16.28999089631971 0.0 0.0 0.0 34.40785480372833" Properties=species:S:1:pos:R:3:initial_magmoms:R:1 pbc="T T T"
Si       0.96563862       1.75823413       1.17203541       0.00000000
Si      -1.61740152       0.88262478      -1.44860590       0.00000000
Si      -1.92396303      -0.72505161       1.16130016       0.00000000
Si       1.76327847      -1.34298018      -1.20262401       0.00000000
Si       0.79949691       0.39635199       3.02920011       0.00000000
Si      -3.38747292       0.77730993       0.13680571       0.00000000
Si       2.97292500       1.94183546      -0.14124432       0.00000000
Si      -1.53256320      -0.57340800      -3.27315224       0.00000000
Si       2.86257654      -2.44025829       0.72373522       0.00000000
Si       3.25510038       0.33109425      -2.05425330       0.00000000
