10
Lattice="16.28999089631971 0.0 0.0 0.0 16.28999089631971 0.0 0.0 0.0 34.40785480372833" Properties=species:S:1:pos:R:3:initial_magmoms:R:1 pbc="T T T"
Si       1.15168671      -1.42488420      -1.59714470       0.00000000
Si      -1.96173954      -0.75156963       1.32343006       0.00000000
Si      -1.52679654       1.30142716      -1.60818962       0.00000000
Si       1.78908183       0.34625486       2.00797471       0.00000000
Si       2.44037232      -2.81925933      -0.11863835       0.00000000
Si       2.69671176       2.80930124      -0.23417999       0.00000000
Si      -2.90056482      -2.61421710      -0.07628226       0.00000000
Si       2.51695161      -0.05814035      -2.98605294       0.00000000
Si      -2.82341538       2.70121709      -0.23965084       0.00000000
Si      -3.71120409       0.99251826       1.04775417       0.00000000
