10
Lattice="16.28999089631971 0.0 0.0 0.0 16.28999089631971 0.0 0.0 0.0 34.40785480372833" Properties=species:S:1:pos:R:3:initial_magmoms:R:1 pbc="T T T"
Si       0.93775014      -0.57455156      -2.09832979       0.00000000
Si      -1.54877175       1.87929096      -0.06977917       0.00000000
Si      -1.18452735      -2.14555168       0.03671320       0.00000000
Si       1.74814506       1.00033143       1.44967255       0.00000000
Si      -1.05277383       0.26240909      -3.13589923       0.00000000
Si      -0.28351116      -3.08686933       1.99847814       0.00000000
Si      -0.20373903       3.69549564       0.66032151       0.00000000
Si      -2.19359511       2.12885376      -2.37276699       0.00000000
Si      -3.47206689      -1.68428404       0.64710889       0.00000000
Si       2.60112204      -0.60887622       2.99207432       0.00000000
