10
Lattice="16.28999089631971 0.0 0.0 0.0 16.28999089631971 0.0 0.0 0.0 34.40785480372833" Properties=species:S:1:pos:R:3:initial_magmoms:R:1 pbc="T T T"
Si      -1.65595995      -0.98550102      -1.41492060       0.00000000
Si       1.04295096      -1.74552595       1.30423047       0.00000000
Si      -1.90910655       0.88708824       1.30440250       0.00000000
Si       1.32427926       2.03607081      -0.70481089       0.00000000
Si      -1.09408527       1.17726201      -2.30794256       0.00000000
Si      -0.44588988       2.19256884       2.69044599       0.00000000
Si       2.27730942      -0.58699875       2.91996715       0.00000000
Si      -3.66324633      -1.16910235      -0.10164086       0.00000000
Si       0.83930967       3.65721903       1.05511746       0.00000000
Si       2.78479179      -2.79973691      -0.19385396       0.00000000
