10
Lattice="16.28999089631971 0.0 0.0 0.0 16.28999089631971 0.0 0.0 0.0 34.40785480372833" Properties=species:S:1:pos:R:3:initial_magmoms:R:1 pbc="T T T"
Si      -1.96240743      -0.04526991       1.27054516       0.00000000
Si       1.50156333       1.24225911       1.37886114       0.00000000
Si       0.65749698      -2.23259337      -0.54980342       0.00000000
Si      -0.78152904       1.40256900      -1.93423864       0.00000000
Si      -2.70120780       2.16894834       1.33812222       0.00000000
Si      -0.30605652      -3.63301209       1.12727077       0.00000000
Si      -1.46463390      -0.67246749       3.47498883       0.00000000
Si       3.02726844      -2.31394563      -0.57044814       0.00000000
Si      -1.11581613      -0.05765031      -3.75025182       0.00000000
Si       3.64884597       1.38536676       0.31758468       0.00000000
