10
Lattice="16.28999089631971 0.0 0.0 0.0 16.28999089631971 0.0 0.0 0.0 34.40785480372833" Properties=species:S:1:pos:R:3:initial_magmoms:R:1 pbc="T T T"
Si      -1.24106994       0.91774602      -1.76151111       0.00000000
Si      -0.64150020      -2.09333016       0.89574018       0.00000000
Si      -0.01992267       1.60598223       1.78377301       0.00000000
Si       2.37245931      -0.81544482      -1.27728910       0.00000000
Si       1.07579160       1.68318054      -2.38739034       0.00000000
Si      -3.01127166      -2.01197790       0.91638491       0.00000000
Si      -2.16720531       1.46287458       2.84504947       0.00000000
Si      -0.01733256       3.79605870       0.78831880       0.00000000
Si       1.73788236       0.94828977       3.34076371       0.00000000
Si      -3.66876864       0.22061547       1.46618833       0.00000000
