10
Lattice="16.28999089631971 0.0 0.0 0.0 16.28999089631971 0.0 0.0 0.0 34.40785480372833" Properties=species:S:1:pos:R:3:initial_magmoms:R:1 pbc="T T T"
Si      -1.33147944      -1.38407985      -1.33970498       0.00000000
Si       1.35821133      -1.35395964       1.36551089       0.00000000
Si      -1.35700587       1.36158336       1.36561411       0.00000000
Si       1.38355857       1.37508777      -1.35944478       0.00000000
Si      -2.77809823      -0.12600315      -2.60431822       0.00000000
Si       2.71241532      -2.70681156       0.00041289       0.00000000
Si      -2.70877288      -2.71391400       0.00478269       0.00000000
Si       2.71524978       2.71464705       0.00829230       0.00000000
Si      -2.71213350       2.71803537       0.00474829       0.00000000
Si       0.00055386      -2.71137276       2.72124994       0.00000000
