10
Lattice="16.28999089631971 0.0 0.0 0.0 16.28999089631971 0.0 0.0 0.0 34.40785480372833" Properties=species:S:1:pos:R:3:initial_magmoms:R:1 pbc="T T T"
Si      -1.35431962       1.35770373      -1.35508530       0.00000000
Si      -1.35559024      -1.35800121       1.35776912       0.00000000
Si       1.35913404       1.35704235       1.35773471       0.00000000
Si       1.36321795      -1.36316514      -1.36096905       0.00000000
Si      -0.00751129       2.71263262      -2.69743281       0.00000000
Si      -2.69917315      -0.02161260      -2.72342796       0.00000000
Si      -2.71272643       2.71359373       0.00048171       0.00000000
Si      -2.71314997       0.00018543       2.71512534       0.00000000
Si       2.71387072       2.71452226       0.00041289       0.00000000
Si       0.00162678       2.71460371       2.71491889       0.00000000
