10
Lattice="16.28999089631971 0.0 0.0 0.0 16.28999089631971 0.0 0.0 0.0 34.40785480372833" Properties=species:S:1:pos:R:3:initial_magmoms:R:1 pbc="T T T"
Si      -1.35518139       1.35755973       1.36138194       0.00000000
Si       1.35922131      -1.35944937       1.36165721       0.00000000
Si      -1.35917244      -1.35319401      -1.37494553       0.00000000
Si       1.36282140       1.36223496      -1.38481715       0.00000000
Si      -2.71495656       2.71399545       0.00275263       0.00000000
Si       2.71847520       2.71371852       0.00481710       0.00000000
Si      -2.71287144      -0.00144981       2.71963277       0.00000000
Si       0.00236205       2.71355562       2.71932310       0.00000000
Si      -2.71363707      -2.72013678       0.00557408       0.00000000
Si       0.05670549      -2.54374866      -2.88056184       0.00000000
