10
Lattice="16.28999089631971 0.0 0.0 0.0 16.28999089631971 0.0 0.0 0.0 34.40785480372833" Properties=species:S:1:pos:R:3:initial_magmoms:R:1 pbc="T T T"
Si      -1.35088083      -1.34796492      -1.38852976       0.00000000
Si       1.36526490       1.36674386      -1.38890824       0.00000000
Si       1.28868561      -1.39437513       1.47850635       0.00000000
Si      -1.15168671       1.42488420       1.59714470       0.00000000
Si       2.45944791       0.30099033       2.85217190       0.00000000
Si       2.71427238      -2.67709860      -0.02676933       0.00000000
Si      -2.72536587      -2.67937920      -0.01021914       0.00000000
Si      -2.67848325       2.72631136      -0.01104493       0.00000000
Si       2.72903112       2.71668234      -0.01173309       0.00000000
Si      -2.70754461       0.00765630      -2.74874183       0.00000000
