10
Lattice="16.28999089631971 0.0 0.0 0.0 16.28999089631971 0.0 0.0 0.0 34.40785480372833" Properties=species:S:1:pos:R:3:initial_magmoms:R:1 pbc="T T T"
Si      -2.29921947      -0.54367875      -0.35687847       0.00000000
Si       1.64574612      -1.75076775       0.32642750       0.00000000
Si       0.16892730       0.54859833       2.47664436       0.00000000
Si       0.87519654       1.20680460      -2.10486729       0.00000000
Si       2.42737290      -0.14597469       2.83761737       0.00000000
Si      -0.79175916      -1.30407966       3.55268181       0.00000000
Si       3.64819437      -1.16911701      -0.77228473       0.00000000
Si       2.69724933      -0.26334414      -2.85781479       0.00000000
Si       0.67719159      -3.87426699       0.58280057       0.00000000
Si      -2.87562483       0.10898010      -2.78941194       0.00000000
