10
Lattice="16.28999089631971 0.0 0.0 0.0 16.28999089631971 0.0 0.0 0.0 34.40785480372833" Properties=species:S:1:pos:R:3:initial_magmoms:R:1 pbc="T T T"
Si       1.44661879      -1.25807670       1.26461324       0.00000000
Si      -1.31377777       1.49928273       1.22674737       0.00000000
Si      -1.04052864      -1.68622677      -1.31415473       0.00000000
Si       1.74368323       1.16206344      -1.13594637       0.00000000
Si       0.06932535      -2.58791085       2.60910092       0.00000000
Si      -2.64973696       0.13116708       2.60851598       0.00000000
Si       2.77809823       0.12600315       2.60431822       0.00000000
Si       0.73674946      -3.45442482      -1.47523213       0.00000000
Si      -2.64172228       2.76446187      -0.48062983       0.00000000
Si       0.06596473       2.84403852       2.60906651       0.00000000
