10
Lattice="16.28999089631971 0.0 0.0 0.0 16.28999089631971 0.0 0.0 0.0 34.40785480372833" Properties=species:S:1:pos:R:3:initial_magmoms:R:1 pbc="T T T"
Si       1.05208965       1.30557834       1.57636234       0.00000000
Si      -2.21664546      -0.03135662      -0.67694051       0.00000000
Si       1.26353385      -0.70196216      -1.88255801       0.00000000
Si      -0.32909058      -1.76854733       1.59900272       0.00000000
Si       0.73210518      -3.24523583       0.15524833       0.00000000
Si       0.42854103      -2.86908344      -2.13579996       0.00000000
Si      -3.26935413       1.04293467       1.10810558       0.00000000
Si      -0.42020055       1.10706840       3.42846938       0.00000000
Si      -2.23459704       1.78810443      -2.26968100       0.00000000
Si      -2.90444184      -2.33200214       0.09365823       0.00000000
