10
Lattice="16.28999089631971 0.0 0.0 0.0 16.28999089631971 0.0 0.0 0.0 34.40785480372833" Properties=species:S:1:pos:R:3:initial_magmoms:R:1 pbc="T T T"
Si       1.35606105      -1.35523026       1.36296471       0.00000000
Si      -1.35860229       1.36019871       1.36255181       0.00000000
Si      -1.35790182      -1.34376210      -1.38898738       0.00000000
Si       1.37034738       1.35540945      -1.39863879       0.00000000
Si       2.71544526      -2.70997182       0.00237414       0.00000000
Si      -2.71751409      -2.71068858      -0.00003441       0.00000000
Si       2.71502172       2.71520091      -0.00034408       0.00000000
Si      -0.00104256      -2.71160082       2.71994244       0.00000000
Si       2.71443528       0.00302994       2.71952955       0.00000000
Si      -2.71549413       0.00276930       2.72038974       0.00000000
