10
Lattice="16.28999089631971 0.0 0.0 0.0 16.28999089631971 0.0 0.0 0.0 34.40785480372833" Properties=species:S:1:pos:R:3:initial_magmoms:R:1 pbc="T T T"
Si       1.35623412      -1.35710361       1.35811320       0.00000000
Si      -1.35837423      -1.35826020      -1.35656484       0.00000000
Si      -1.35760860       1.35764118       1.35831964       0.00000000
Si       1.35953082       1.35850455      -1.35649603       0.00000000
Si       2.71407594      -0.00074934       2.71581350       0.00000000
Si      -2.71494027       2.71503801       0.00079138       0.00000000
Si      -2.71547784      -2.71463076       0.00041289       0.00000000
Si       0.00100998      -2.71300176      -2.71715540       0.00000000
Si       2.71517552      -2.71510317       0.00027526       0.00000000
Si       0.00091224      -2.71686249       2.71347376       0.00000000
