10
Lattice="16.28999089631971 0.0 0.0 0.0 16.28999089631971 0.0 0.0 0.0 34.40785480372833" Properties=species:S:1:pos:R:3:initial_magmoms:R:1 pbc="T T T"
Si      -1.35733167       1.35739683      -1.35752826       0.00000000
Si       1.35799956       1.35796698       1.35646162       0.00000000
Si      -1.35773892      -1.35814617       1.35759708       0.00000000
Si       1.35760860      -1.35764118      -1.35831964       0.00000000
Si       2.71208952       0.00042354       2.71495330       0.00000000
Si       2.71384272      -2.71474479      -0.00020645       0.00000000
Si       2.71505260       2.71485882      -0.00003441       0.00000000
Si      -2.71495656       2.71516833      -0.00013763       0.00000000
Si      -0.00200367       2.71528236      -2.71505652       0.00000000
Si      -2.71539639      -2.71521720      -0.00024086       0.00000000
