10
Lattice="16.28999089631971 0.0 0.0 0.0 16.28999089631971 0.0 0.0 0.0 34.40785480372833" Properties=species:S:1:pos:R:3:initial_magmoms:R:1 pbc="T T T"
Si      -0.89770932       0.65146968       2.00178130       0.00000000
Si      -1.74407256      -1.01310768      -1.27691061       0.00000000
Si       1.04055081       1.75360221      -1.24890260       0.00000000
Si       1.91615265      -1.66571766       0.60809036       0.00000000
Si       1.34902607       1.59643629       2.72668639       0.00000000
Si       2.30720876       0.29947536      -2.55227287       0.00000000
Si      -0.41625837      -2.42608599      -2.54466873       0.00000000
Si       0.89292006      -3.57290199      -0.86205488       0.00000000
Si      -1.54535085      -1.24561485       3.25591390       0.00000000
Si       3.61954745      -0.97621083      -1.02535465       0.00000000
