10
Lattice="16.28999089631971 0.0 0.0 0.0 16.28999089631971 0.0 0.0 0.0 34.40785480372833" Properties=species:S:1:pos:R:3:initial_magmoms:R:1 pbc="T T T"
Si      -1.83744684       0.28737189       1.41966888       0.00000000
Si       0.64764153       1.89708453      -1.25413260       0.00000000
Si       1.51141878       0.49480875       1.89109116       0.00000000
Si      -0.74432268      -1.82550627      -1.75604026       0.00000000
Si      -1.84003695      -1.90270458       2.41512309       0.00000000
Si       1.54535085       1.24561485      -3.25591390       0.00000000
Si      -0.90521901       3.65013288      -0.83810700       0.00000000
Si       0.43609959       1.87367580       3.43535096       0.00000000
Si      -1.99286973      -0.63785124      -3.35573114       0.00000000
Si       3.64413394       1.20731706       1.08123303       0.00000000
