10
Lattice="16.28999089631971 0.0 0.0 0.0 16.28999089631971 0.0 0.0 0.0 34.40785480372833" Properties=species:S:1:pos:R:3:initial_magmoms:R:1 pbc="T T T"
Si      -0.39819276       0.56920518      -2.18751500       0.00000000
Si       0.23969106       1.68510276       1.61544969       0.00000000
Si      -2.07664920      -0.92823678       0.62735877       0.00000000
Si       1.83217118      -1.41457473      -0.47131906       0.00000000
Si       2.06627477      -2.54915694       1.53655243       0.00000000
Si       1.04329305      -2.67664248      -2.35353299       0.00000000
Si       0.67621419       2.45557089      -2.78948076       0.00000000
Si      -3.72291660       0.02008557      -0.82589220       0.00000000
Si       1.29676545       0.70027452       3.51841157       0.00000000
Si      -1.95932862       2.60511309       2.02683023       0.00000000
