10
Lattice="16.28999089631971 0.0 0.0 0.0 16.28999089631971 0.0 0.0 0.0 34.40785480372833" Properties=species:S:1:pos:R:3:initial_magmoms:R:1 pbc="T T T"
Si      -2.10041631      -0.90002250      -0.41987929       0.00000000
Si      -0.07061715       2.34382149       0.26163747       0.00000000
Si       1.08950778      -0.59280939      -2.01647346       0.00000000
Si       0.48143466      -0.89715546       2.14925344       0.00000000
Si      -3.13147557      -0.29888892       1.60987561       0.00000000
Si       2.35980198       0.29963826       2.67256280       0.00000000
Si      -0.66829725       0.06488307      -3.57346417       0.00000000
Si       1.40814018      -2.96939007      -1.62535915       0.00000000
Si      -2.81557989      -0.07822458      -2.51218770       0.00000000
Si      -0.49692645       2.77428474       2.55292662       0.00000000
