10
Lattice="16.28999089631971 0.0 0.0 0.0 16.28999089631971 0.0 0.0 0.0 34.40785480372833" Properties=species:S:1:pos:R:3:initial_magmoms:R:1 pbc="T T T"
Si       1.35293337      -1.35799956       1.35917984       0.00000000
Si       1.35612621       1.35738844      -1.35721859       0.00000000
Si      -1.35883035      -1.35793440      -1.35711537       0.00000000
Si      -1.35865116       1.35861515       1.36028089       0.00000000
Si      -0.00964368      -2.68522731       2.72241981       0.00000000
Si       2.71368594      -0.00079821      -2.71457481       0.00000000
Si      -0.00135207       2.71446690      -2.71412751       0.00000000
Si       2.71412577      -2.71513575      -0.00051612       0.00000000
Si      -0.00120546      -2.71570590      -2.71450600       0.00000000
Si      -2.71616202      -0.00057015      -2.71460922       0.00000000
