10
Lattice="16.28999089631971 0.0 0.0 0.0 16.28999089631971 0.0 0.0 0.0 34.40785480372833" Properties=species:S:1:pos:R:3:initial_magmoms:R:1 pbc="T T T"
Si       0.09511764       2.19116790      -0.97346757       0.00000000
Si      -0.38701654       0.38944503       2.34503425       0.00000000
Si       2.26456282      -0.78113808      -0.26256649       0.00000000
Si      -1.93771051      -0.57159981      -1.59408240       0.00000000
Si      -2.08304989       1.84526604      -1.79550609       0.00000000
Si       1.66926106      -1.36151820      -2.54890090       0.00000000
Si      -0.47402143      -2.51152704      -2.36991114       0.00000000
Si      -0.80490391      -1.80973755       3.10493214       0.00000000
Si      -0.59345971      -3.81727805      -0.35398821       0.00000000
Si      -1.85699356      -3.11531589       1.52856980       0.00000000
