10
Lattice="16.28999089631971 0.0 0.0 0.0 16.28999089631971 0.0 0.0 0.0 34.40785480372833" Properties=species:S:1:pos:R:3:initial_magmoms:R:1 pbc="T T T"
Si       1.76410926       1.03285116      -1.07114877       0.00000000
Si       1.38279294      -1.24774884       1.48558749       0.00000000
Si      -0.96090963      -1.58881257      -1.58826544       0.00000000
Si      -1.31436584       1.47321873       1.44744980       0.00000000
Si       3.39051915      -0.65655216      -1.17602982       0.00000000
Si       2.83634964      -2.50462008       0.17262774       0.00000000
Si      -2.66992190      -2.68174125      -0.25171768       0.00000000
Si       0.03776511      -2.60216460       2.83797865       0.00000000
Si      -2.52785681       2.95735176      -0.05488400       0.00000000
Si      -2.67836012       0.11013669       2.83470991       0.00000000
