10
Lattice="16.28999089631971 0.0 0.0 0.0 16.28999089631971 0.0 0.0 0.0 34.40785480372833" Properties=species:S:1:pos:R:3:initial_magmoms:R:1 pbc="T T T"
Si      -1.35784182      -1.35635427      -1.35770030       0.00000000
Si       1.35849640      -1.35368271       1.36117550       0.00000000
Si       1.35849640       1.35874890      -1.35752826       0.00000000
Si      -1.35959502       1.35881406       1.35745945       0.00000000
Si      -2.71316370      -2.71611315      -0.00233974       0.00000000
Si       0.01644476       2.71353933       2.71629521       0.00000000
Si      -2.71407594       0.00074934      -2.71581350       0.00000000
Si       0.00109958      -2.71435383      -2.71553823       0.00000000
Si      -2.71368498       2.71635750      -0.00103224       0.00000000
Si       2.71608872      -2.71410948       0.00003441       0.00000000
