10
Lattice="16.28999089631971 0.0 0.0 0.0 16.28999089631971 0.0 0.0 0.0 34.40785480372833" Properties=species:S:1:pos:R:3:initial_magmoms:R:1 pbc="T T T"
Si      -1.48760705       1.83679524       0.28269509       0.00000000
Si       0.19825712      -0.74826486       2.37087456       0.00000000
Si       2.20524539      -0.20779524      -1.31217868       0.00000000
Si      -1.95785048      -0.54309231      -1.77530867       0.00000000
Si       2.02322093      -2.21025978       1.27876864       0.00000000
Si      -3.48386510       0.92271447      -0.75755816       0.00000000
Si       1.50060515      -1.93031613      -2.86793071       0.00000000
Si      -0.47723609       3.74168268      -0.92859970       0.00000000
Si       3.81344306      -0.67955364       0.55623769       0.00000000
Si       1.15916675       0.84054771       3.95914000       0.00000000
