10
Lattice="16.28999089631971 0.0 0.0 0.0 16.28999089631971 0.0 0.0 0.0 34.40785480372833" Properties=species:S:1:pos:R:3:initial_magmoms:R:1 pbc="T T T"
Si       1.35479043      -1.35242838       1.36179484       0.00000000
Si      -1.36321795       1.36316514       1.36096905       0.00000000
Si      -1.35417860      -1.34952876      -1.38911813       0.00000000
Si       1.33864704       1.37488622      -1.37954242       0.00000000
Si       2.71031391      -2.70681156       0.00357842       0.00000000
Si      -0.00331176      -2.70984150       2.71877257       0.00000000
Si       2.71114470       0.00498474       2.71915106       0.00000000
Si      -2.71817288      -2.71261080      -0.00185803       0.00000000
Si       2.70842427       2.72582266      -0.00292467       0.00000000
Si      -2.71880819       0.00516393       2.71873817       0.00000000
