10
Lattice="16.28999089631971 0.0 0.0 0.0 16.28999089631971 0.0 0.0 0.0 34.40785480372833" Properties=species:S:1:pos:R:3:initial_magmoms:R:1 pbc="T T T"
Si       1.35552348      -1.35438318      -1.35821642       0.00000000
Si      -1.35479043       1.35242838      -1.36179484       0.00000000
Si       1.35635427       1.35741312       1.35735622       0.00000000
Si      -1.35810219      -1.35741312       1.35697774       0.00000000
Si       2.70769122       0.00420282      -2.71993900       0.00000000
Si      -2.71401893      -2.71384884      -0.00027526       0.00000000
Si       2.71435383      -2.71353933      -0.00013763       0.00000000
Si       2.71376739      -0.00004887       2.71429955       0.00000000
Si      -0.00097740      -2.71435383       2.71450600       0.00000000
Si      -0.00003258       2.71516364       2.71392106       0.00000000
