10
Lattice="16.28999089631971 0.0 0.0 0.0 16.28999089631971 0.0 0.0 0.0 34.40785480372833" Properties=species:S:1:pos:R:3:initial_magmoms:R:1 pbc="T T T"
Si      -1.18384969       0.97951770      -1.68712129       0.00000000
Si      -2.17773354      -0.59077314       0.95306370       0.00000000
Si       1.36953288      -1.64201571      -1.33371801       0.00000000
Si       0.73594962       1.98420345       1.38749752       0.00000000
Si      -1.42797651      -2.22550722       2.56352425       0.00000000
Si       0.24045669       2.27574446      -2.99868063       0.00000000
Si      -2.48620880      -0.43360722      -3.02252529       0.00000000
Si       2.85001695      -0.36724176      -2.77265531       0.00000000
Si      -0.87250869       2.44749498       3.11996839       0.00000000
Si       2.60776836       1.62833211       2.78511096       0.00000000
