10
Lattice="10.86 0.0 0.0 0.0 10.86 0.0 0.0 0.0 10.86" Properties=species:S:1:pos:R:3:initial_magmoms:R:1 pbc="T T T"
Si      -1.31058480       1.39480410       1.18288206       0.00000000
Si       1.28839782       1.15553658      -1.57470000       0.00000000
Si       1.47565680      -1.40327490       1.24168896       0.00000000
Si      -1.32281316      -1.46525292      -1.52324532       0.00000000
Si       0.03218904       2.64645168       2.46034386       0.00000000
Si      -2.68281096      -0.06854832       2.46034386       0.00000000
Si      -0.09378696      -2.77565310       2.54159838       0.00000000
Si      -2.68281096       2.64645168      -0.25465614       0.00000000
Si       2.74718904       2.64645168      -0.25465614       0.00000000
Si      -2.68281096      -2.78354832      -0.25465614       0.00000000
