10
Lattice="16.28999089631971 0.0 0.0 0.0 16.28999089631971 0.0 0.0 0.0 34.185847837958455" Properties=species:S:1:pos:R:3:initial_magmoms:R:1 pbc="T T T"
Si       0.91103128      -1.74677670       1.29827667       0.00000000
Si       0.88592839       1.98867410       0.95180291       0.00000000
Si       0.33674199       0.12214242      -2.36049993       0.00000000
Si      -1.82866068       0.69467076       1.39850963       0.00000000
Si      -0.14546970       1.37503890       2.97591390       0.00000000
Si      -2.46208104       2.44939602       0.02112687       0.00000000
Si       0.30715772      -0.89922429       3.45424255       0.00000000
Si       3.22562851      -1.49636682       1.05542027       0.00000000
Si       0.35886055      -2.08790559      -3.10079488       0.00000000
Si      -0.47323102       3.74993261      -0.11780450       0.00000000
