10
Lattice="16.28999089631971 0.0 0.0 0.0 16.28999089631971 0.0 0.0 0.0 34.185847837958455" Properties=species:S:1:pos:R:3:initial_magmoms:R:1 pbc="T T T"
Si       1.22197969       0.73282194       1.84323357       0.00000000
Si      -1.30900480       1.86606837      -0.52167633       0.00000000
Si      -0.99705130      -2.01071447       0.70932255       0.00000000
Si       2.71095085       0.99443934      -0.32678270       0.00000000
Si      -1.39092721      -2.78615105      -1.43778919       0.00000000
Si      -2.16045052      -0.81348839      -2.60318540       0.00000000
Si       0.84299121      -3.15603179       1.75711937       0.00000000
Si       3.35091979      -0.23000177       1.62188009       0.00000000
Si      -2.89459195       2.09613204       1.18183961       0.00000000
Si       0.13026298       2.55489102      -2.94357407       0.00000000
