10
Lattice="16.28999089631971 0.0 0.0 0.0 16.28999089631971 0.0 0.0 0.0 34.185847837958455" Properties=species:S:1:pos:R:3:initial_magmoms:R:1 pbc="T T T"
Si      -1.35666378       1.35798327       1.35577730       0.00000000
Si      -1.35692442      -1.35822762      -1.35762333       0.00000000
Si       1.35865116       1.35708732      -1.35758915       0.00000000
Si       1.36076886      -1.36036161       1.36073425       0.00000000
Si      -2.70737357       0.00089595       2.68393241       0.00000000
Si      -2.71479692       2.71256193      -0.00092302       0.00000000
Si      -2.71402966      -0.00074934      -2.71469969       0.00000000
Si       0.00099369       2.71414206      -2.71466551       0.00000000
Si       0.00058644      -2.71505430      -2.71459714       0.00000000
Si       2.71585251      -0.00061902      -2.71490481       0.00000000
