10
Lattice="16.28999089631971 0.0 0.0 0.0 16.28999089631971 0.0 0.0 0.0 34.185847837958455" Properties=species:S:1:pos:R:3:initial_magmoms:R:1 pbc="T T T"
Si      -0.07478739       0.74137419      -2.17760554       0.00000000
Si       2.20403700      -0.59142474       0.34049123       0.00000000
Si       0.18510327       1.86738786       1.40845772       0.00000000
Si      -1.07085573      -2.08047735       0.35368698       0.00000000
Si       0.11267793       0.58396392       3.41564671       0.00000000
Si       2.26957167      -0.40544181       2.72608359       0.00000000
Si       0.43479639      -1.24201476      -3.45232814       0.00000000
Si       2.52061686      -2.65015494      -0.66344512       0.00000000
Si      -2.30314536       1.33504695      -2.59511753       0.00000000
Si       0.99619866       2.91468825      -2.10728521       0.00000000
