10
Lattice="16.28999089631971 0.0 0.0 0.0 16.28999089631971 0.0 0.0 0.0 34.185847837958455" Properties=species:S:1:pos:R:3:initial_magmoms:R:1 pbc="T T T"
Si       0.74288916      -0.64360161      -2.24443891       0.00000000
Si       1.81670967       0.85654449       1.47553521       0.00000000
Si      -1.77404616       1.85578938       0.01972525       0.00000000
Si      -1.05779115      -1.94869125       1.33975921       0.00000000
Si      -1.54864143      -0.60250194      -2.72799800       0.00000000
Si       0.46271745       2.18641122       2.84771489       0.00000000
Si      -2.26209456      -0.53991576       2.81878339       0.00000000
Si       2.43858042       2.63873565      -1.21886290       0.00000000
Si      -3.51260944       0.82694556       1.34241203       0.00000000
Si       2.45289933       0.93882528      -2.88125324       0.00000000
