10
Lattice="16.28999089631971 0.0 0.0 0.0 16.28999089631971 0.0 0.0 0.0 34.185847837958455" Properties=species:S:1:pos:R:3:initial_magmoms:R:1 pbc="T T T"
Si       0.73103004       1.90596258      -1.18888531       0.00000000
Si      -1.23590601       1.45653777       1.46102533       0.00000000
Si      -0.97176366      -1.77906348      -1.31948357       0.00000000
Si       1.49646456      -1.23970158       1.44197354       0.00000000
Si      -2.55638970      -2.64126060       0.14052784       0.00000000
Si       1.97407107      -1.49947821      -2.78923655       0.00000000
Si       2.63287125       2.76170886       0.06692567       0.00000000
Si      -2.62573623       2.78169669       0.07768738       0.00000000
Si      -2.57978214       0.12372255       2.83011460       0.00000000
Si       0.13214448      -2.59483410       2.82669601       0.00000000
