10
Lattice="16.28999089631971 0.0 0.0 0.0 16.28999089631971 0.0 0.0 0.0 34.185847837958455" Properties=species:S:1:pos:R:3:initial_magmoms:R:1 pbc="T T T"
Si       1.72916721      -1.10794806       1.11804878       0.00000000
Si      -1.35169533      -1.24965477      -1.50089630       0.00000000
Si       1.39655799       1.48129857      -1.38322855       0.00000000
Si      -0.83232126      -0.01513341       2.37646473       0.00000000
Si      -1.77530049       2.26569465       2.19110896       0.00000000
Si       0.07784991      -2.52999990      -2.82091518       0.00000000
Si       3.05512434       2.37767211       0.06522663       0.00000000
Si      -2.65748544       0.18844272      -2.81582149       0.00000000
Si      -2.31446691      -3.08498391      -0.39607745       0.00000000
Si       2.77685856       0.16430094      -2.79783972       0.00000000
