10
Lattice="16.28999089631971 0.0 0.0 0.0 16.28999089631971 0.0 0.0 0.0 34.185847837958455" Properties=species:S:1:pos:R:3:initial_magmoms:R:1 pbc="T T T"
Si       1.43975907       0.09391185      -1.77711811       0.00000000
Si       1.51514919      -0.47579832       1.74235108       0.00000000
Si      -1.86675255      -1.45174851      -0.04683464       0.00000000
Si       0.17319528       2.08816623      -1.98250680       0.00000000
Si      -1.71248625       2.61571788      -0.30719420       0.00000000
Si      -0.06947685      -1.33799544       3.20236249       0.00000000
Si      -0.96286932      -2.97333225       1.71968585       0.00000000
Si       3.24975726      -2.19038598       0.48109771       0.00000000
Si      -2.56956342      -1.55255103      -2.56961487       0.00000000
Si       3.52527003       1.08680364      -1.42592670       0.00000000
