10
Lattice="16.28999089631971 0.0 0.0 0.0 16.28999089631971 0.0 0.0 0.0 34.185847837958455" Properties=species:S:1:pos:R:3:initial_magmoms:R:1 pbc="T T T"
Si      -1.35689184      -1.35635427      -1.35758915       0.00000000
Si       1.35866745      -1.35451350       1.35981123       0.00000000
Si       1.35764118       1.35856239      -1.35758915       0.00000000
Si      -1.35697329       1.35905841       1.35957193       0.00000000
Si       0.00004887      -2.71381626      -2.71473388       0.00000000
Si      -2.71453302       0.00105885      -2.71446039       0.00000000
Si      -2.71508688      -2.71417464       0.00041023       0.00000000
Si       2.71425609      -2.71500543       0.00061535       0.00000000
Si       0.00071676       2.71512176      -2.71422109       0.00000000
Si       2.71497285       0.00154755      -2.71452876       0.00000000
