10
Lattice="16.28999089631971 0.0 0.0 0.0 16.28999089631971 0.0 0.0 0.0 34.185847837958455" Properties=species:S:1:pos:R:3:initial_magmoms:R:1 pbc="T T T"
Si      -1.35741312       1.35489306       1.35666613       0.00000000
Si       1.35751086      -1.36026778       1.35581148       0.00000000
Si      -1.37152026      -1.35347324      -1.35377742       0.00000000
Si       1.35814617       1.36175115      -1.36030692       0.00000000
Si       2.46759291      -0.10746024      -2.83629540       0.00000000
Si      -0.07185519       2.61841062      -2.72636049       0.00000000
Si      -2.71083519      -2.71425839      -0.00157255       0.00000000
Si       0.00148239       2.71372341       2.71363993       0.00000000
Si      -2.71349046      -0.00180819       2.71398179       0.00000000
Si      -2.71292031       2.71535241      -0.00222208       0.00000000
