10
Lattice="16.28999089631971 0.0 0.0 0.0 16.28999089631971 0.0 0.0 0.0 34.185847837958455" Properties=species:S:1:pos:R:3:initial_magmoms:R:1 pbc="T T T"
Si      -1.43386209      -1.26495175      -1.34357294       0.00000000
Si      -1.21906215       0.58090792       1.94134701       0.00000000
Si       1.73695383      -1.09292935       1.21404269       0.00000000
Si       1.27345446       1.62174118      -1.34938454       0.00000000
Si      -0.00136836       2.65301221       2.10766125       0.00000000
Si       0.01493793      -0.79654190       3.56281687       0.00000000
Si       3.37030326       0.71057632       1.25178389       0.00000000
Si      -0.02523321      -2.43690322      -2.83811067       0.00000000
Si      -3.15424899      -2.27473627       0.02687009       0.00000000
Si       2.75188599      -2.76138373      -0.04286908       0.00000000
