10
Lattice="16.28999089631971 0.0 0.0 0.0 16.28999089631971 0.0 0.0 0.0 34.185847837958455" Properties=species:S:1:pos:R:3:initial_magmoms:R:1 pbc="T T T"
Si       1.02061737      -1.27640295       1.72864255       0.00000000
Si       1.62370575       1.63758483      -0.58758668       0.00000000
Si      -1.52479287       1.29663513       1.28884137       0.00000000
Si      -1.21769379      -2.07210429      -0.16631424       0.00000000
Si      -3.00832317      -0.07545528      -0.12792351       0.00000000
Si       0.00136836      -2.65301221      -2.10766125       0.00000000
Si       2.79642285       0.13756905      -1.96784106       0.00000000
Si       0.18077013       2.88717444      -2.09354249       0.00000000
Si      -1.24673886       0.43412850       3.49687233       0.00000000
Si       0.01630629      -3.44955411       1.45515561       0.00000000
