10
Lattice="16.28999089631971 0.0 0.0 0.0 16.28999089631971 0.0 0.0 0.0 34.185847837958455" Properties=species:S:1:pos:R:3:initial_magmoms:R:1 pbc="T T T"
Si      -1.19075013       0.13916547       1.96852478       0.00000000
Si       2.19258513       0.65129049       0.58806528       0.00000000
Si      -0.82551204       1.80234189      -1.31181427       0.00000000
Si      -0.20101860      -2.38132826      -0.28309316       0.00000000
Si      -0.80664822       0.69835230      -3.39486170       0.00000000
Si      -3.38875983      -0.26230321       1.21113689       0.00000000
Si      -0.19163556      -1.65333465       3.34850567       0.00000000
Si       3.68828406      -0.72245336      -0.51152313       0.00000000
Si      -1.43246115       2.45557089       2.52438697       0.00000000
Si       0.71941527       3.61989864      -0.94537596       0.00000000
