10
Lattice="16.28999089631971 0.0 0.0 0.0 16.28999089631971 0.0 0.0 0.0 34.185847837958455" Properties=species:S:1:pos:R:3:initial_magmoms:R:1 pbc="T T T"
Si      -1.31725827       1.12368420      -1.56694720       0.00000000
Si      -1.93912902      -0.65850696       1.12745092       0.00000000
Si       0.82932390       1.89798048       1.11104170       0.00000000
Si       1.63810611      -1.87255179      -0.27400352       0.00000000
Si      -0.60696540      -2.06464347       2.48127962       0.00000000
Si       2.15932095       0.62815869       2.49754184       0.00000000
Si      -1.30293936      -0.57622617      -3.22933753       0.00000000
Si      -0.10603161       3.11785713      -1.77544680       0.00000000
Si       3.45077586      -0.86306049       0.99751386       0.00000000
Si       0.69572961      -3.50215452       1.11583456       0.00000000
