10
Lattice="16.28999089631971 0.0 0.0 0.0 16.28999089631971 0.0 0.0 0.0 34.185847837958455" Properties=species:S:1:pos:R:3:initial_magmoms:R:1 pbc="T T T"
Si       0.75834185      -1.00215428       1.97884891       0.00000000
Si       0.31772831       2.21830704      -0.83628886       0.00000000
Si      -0.08834067      -1.90062923      -1.51921993       0.00000000
Si      -2.34579325       1.26675927       0.55791335       0.00000000
Si       2.67449872       0.54077913       1.56451620       0.00000000
Si      -1.44259420      -1.50547619       2.93595062       0.00000000
Si       0.72301699      -1.06214547      -3.57122659       0.00000000
Si      -1.05342610       2.36649717      -2.78153306       0.00000000
Si       1.83481438      -3.24738611      -0.86835521       0.00000000
Si       0.13762281       3.81572073       0.82545194       0.00000000
