10
Lattice="16.28999089631971 0.0 0.0 0.0 16.28999089631971 0.0 0.0 0.0 34.185847837958455" Properties=species:S:1:pos:R:3:initial_magmoms:R:1 pbc="T T T"
Si       1.35666378      -1.35879777      -1.36271703       0.00000000
Si      -1.35956340       1.35948195      -1.36353749       0.00000000
Si      -1.36236528      -1.35975888       1.37772462       0.00000000
Si       1.37103156       1.35518139       1.37806648       0.00000000
Si       2.71604799      -2.71252935      -0.00793112       0.00000000
Si      -2.71560816      -2.71570590      -0.00256394       0.00000000
Si       2.71775844       2.71484253      -0.00444416       0.00000000
Si      -2.71538010       2.71793763      -0.00899088       0.00000000
Si       0.00001629      -2.71399545      -2.72006688       0.00000000
Si       2.71451673       0.00066789      -2.72034036       0.00000000
