10
Lattice="16.28999089631971 0.0 0.0 0.0 16.28999089631971 0.0 0.0 0.0 34.185847837958455" Properties=species:S:1:pos:R:3:initial_magmoms:R:1 pbc="T T T"
Si      -1.35581670       1.35845568       1.35454661       0.00000000
Si      -1.35549090      -1.35830907      -1.35666613       0.00000000
Si       1.35904212       1.35674523      -1.35683706       0.00000000
Si       1.35956340      -1.35948195       1.36353749       0.00000000
Si      -2.69723304       0.00415395       2.70895647       0.00000000
Si      -2.71171485       2.71352304      -0.00013674       0.00000000
Si      -2.71316466      -0.00100998      -2.71401598       0.00000000
Si       0.00224802       2.71329498      -2.71394760       0.00000000
Si       2.71562445       2.71321353       0.00034186       0.00000000
Si       0.00201996      -2.71614573      -2.71387923       0.00000000
