10
Lattice="16.28999089631971 0.0 0.0 0.0 16.28999089631971 0.0 0.0 0.0 34.185847837958455" Properties=species:S:1:pos:R:3:initial_magmoms:R:1 pbc="T T T"
Si       2.24849241      -0.60654186       0.31481765       0.00000000
Si      -0.66155319       1.76456538       1.40917562       0.00000000
Si      -0.27805401       0.86250663      -2.20803096       0.00000000
Si      -0.91230516      -2.14956324       0.55989613       0.00000000
Si       2.26735623      -1.71053145      -1.76822978       0.00000000
Si      -3.21844788      -1.79269821       0.56215240       0.00000000
Si       1.24673886      -0.43412850      -3.49687233       0.00000000
Si      -0.52639506       0.93237444       3.63645322       0.00000000
Si      -2.83392243       2.46057192       0.69947702       0.00000000
Si      -0.31475538      -2.67118696       2.83776881       0.00000000
