10
Lattice="16.28999089631971 0.0 0.0 0.0 16.28999089631971 0.0 0.0 0.0 34.185847837958455" Properties=species:S:1:pos:R:3:initial_magmoms:R:1 pbc="T T T"
Si      -1.53321480      -1.75428639       0.07141428       0.00000000
Si       2.14708716      -0.92548377       0.22313115       0.00000000
Si      -0.40270509       1.09346625       2.05446805       0.00000000
Si      -0.16734717       1.15877286      -2.05422874       0.00000000
Si       0.61866162      -0.58995864      -3.39834866       0.00000000
Si      -1.61533269      -2.27673927       2.34573163       0.00000000
Si       2.61087975      -1.22679990      -2.23356780       0.00000000
Si      -3.70115316      -0.86859909      -0.44315139       0.00000000
Si       1.42560306       2.92356630      -2.09043158       0.00000000
Si      -1.93191255      -0.21800907       3.34966799       0.00000000
