10
Lattice="16.28999089631971 0.0 0.0 0.0 16.28999089631971 0.0 0.0 0.0 34.185847837958455" Properties=species:S:1:pos:R:3:initial_magmoms:R:1 pbc="T T T"
Si      -0.63659691       1.83355353       1.35417056       0.00000000
Si       2.17440549      -0.68277906       0.69257148       0.00000000
Si      -1.49455863      -1.87796007       0.07637123       0.00000000
Si      -0.00140094       0.93112011      -2.22009857       0.00000000
Si      -2.81323413       2.31391305       0.66751324       0.00000000
Si       0.79566876       3.62063169       0.70429723       0.00000000
Si      -1.35940050      -2.71015101       2.30364883       0.00000000
Si       2.96041428      -2.43151056      -0.65154844       0.00000000
Si       2.63420703       2.83560030      -0.49743855       0.00000000
Si      -3.66692787      -1.18195353      -0.63332737       0.00000000
