10
Lattice="16.28999089631971 0.0 0.0 0.0 16.28999089631971 0.0 0.0 0.0 34.185847837958455" Properties=species:S:1:pos:R:3:initial_magmoms:R:1 pbc="T T T"
Si      -0.62670888       2.24031483      -0.16484425       0.00000000
Si       1.63634679      -0.25622541       1.64273346       0.00000000
Si       0.40270509      -1.09346625      -2.05446805       0.00000000
Si      -1.52920746      -1.31147532       1.29519994       0.00000000
Si      -1.54640970       2.47645467       1.97854124       0.00000000
Si      -1.21262760      -3.37020552       0.29126359       0.00000000
Si      -1.13050971      -2.84775264      -1.98305377       0.00000000
Si      -2.73704580       2.19463767      -1.15257650       0.00000000
Si       0.53551746       0.14819013       3.68797133       0.00000000
Si       2.54979225      -2.01895002      -1.83133689       0.00000000
