10
Lattice="16.28999089631971 0.0 0.0 0.0 16.28999089631971 0.0 0.0 0.0 34.185847837958455" Properties=species:S:1:pos:R:3:initial_magmoms:R:1 pbc="T T T"
Si       1.25051488      -1.36686132       1.47637136       0.00000000
Si       1.73856328       1.02884382      -1.32268678       0.00000000
Si      -1.44496959       1.33226136       1.47318866       0.00000000
Si      -1.19695336      -1.90216701      -1.23424795       0.00000000
Si      -2.68406487       2.54953161      -0.07546530       0.00000000
Si       2.45481829      -2.77563681      -0.00265282       0.00000000
Si       2.63195575       2.66418063       0.15998986       0.00000000
Si       3.51260944      -0.82694556      -1.34241203       0.00000000
Si       2.61033892      -0.00996948       2.84691012       0.00000000
Si      -0.10707580       2.71075374       2.84243177       0.00000000
