10
Lattice="16.28999089631971 0.0 0.0 0.0 16.28999089631971 0.0 0.0 0.0 34.185847837958455" Properties=species:S:1:pos:R:3:initial_magmoms:R:1 pbc="T T T"
Si       1.35319401      -1.35492075      -1.35765752       0.00000000
Si      -1.36184400       1.36005210      -1.35670032       0.00000000
Si       1.36796904       1.35057132       1.36579376       0.00000000
Si      -1.36065483      -1.36967949       1.37403255       0.00000000
Si      -0.07263711       2.52446130       2.78973767       0.00000000
Si      -0.00338832      -2.71138905      -2.71483644       0.00000000
Si       2.71169856       0.00324171      -2.71480225       0.00000000
Si       2.71489140      -2.71277370       0.00109395       0.00000000
Si      -2.71824714      -2.70967860      -0.00345277       0.00000000
Si       2.71256193       2.71893132      -0.00099139       0.00000000
