10
Lattice="16.28999089631971 0.0 0.0 0.0 16.28999089631971 0.0 0.0 0.0 34.185847837958455" Properties=species:S:1:pos:R:3:initial_magmoms:R:1 pbc="T T T"
Si       2.11033692       0.04567716       0.98773225       0.00000000
Si       0.16140132       0.38700153      -2.29452120       0.00000000
Si      -1.07098605      -2.17331406      -0.07032033       0.00000000
Si      -0.97857288       1.76236623       1.44831844       0.00000000
Si       1.19063610       0.28181700       3.13111774       0.00000000
Si      -3.29934402      -1.57964130      -0.48783232       0.00000000
Si       2.73704580      -2.19463767       1.15257650       0.00000000
Si      -2.01523590       0.86736105      -2.98117853       0.00000000
Si      -0.99619866      -2.91468825       2.10728521       0.00000000
Si      -0.81109539      -1.04730039       3.51574293       0.00000000
