10
Lattice="16.28999089631971 0.0 0.0 0.0 16.28999089631971 0.0 0.0 0.0 34.185847837958455" Properties=species:S:1:pos:R:3:initial_magmoms:R:1 pbc="T T T"
Si       1.76899626      -0.06421518       1.43628501       0.00000000
Si      -0.66166722       2.24518554      -0.01456318       0.00000000
Si       0.91970082      -0.23613984      -2.14338549       0.00000000
Si      -2.00173149      -1.32911739       0.38462519       0.00000000
Si      -2.16920898       1.48054923      -1.68279930       0.00000000
Si      -1.19063610      -0.28181700      -3.13111774       0.00000000
Si       1.54640970      -2.47645467      -1.97854124       0.00000000
Si       2.08192716      -2.32826454       1.70943009       0.00000000
Si      -3.58049313       0.26611344      -0.23513039       0.00000000
Si      -1.81296297       2.36455866       2.14718012       0.00000000
