10
Lattice="16.28999089631971 0.0 0.0 0.0 16.28999089631971 0.0 0.0 0.0 34.185847837958455" Properties=species:S:1:pos:R:3:initial_magmoms:R:1 pbc="T T T"
Si       0.84387087       1.17260307       1.86559113       0.00000000
Si       1.71217674      -0.95933439      -1.32032655       0.00000000
Si      -1.15777917       1.59213573      -1.32856535       0.00000000
Si      -1.29090105      -1.88410140       0.81923012       0.00000000
Si       1.32776532      -0.66549537       3.27808278       0.00000000
Si      -1.80757098       0.24430113      -3.11289667       0.00000000
Si      -1.14360687       2.26033524       2.63706359       0.00000000
Si       3.15037197      -2.12581242       0.29249428       0.00000000
Si      -3.40123797      -1.92977856      -0.16850214       0.00000000
Si       0.21683619       3.51241722      -1.71609633       0.00000000
