10
Lattice="16.28999089631971 0.0 0.0 0.0 16.28999089631971 0.0 0.0 0.0 34.185847837958455" Properties=species:S:1:pos:R:3:initial_magmoms:R:1 pbc="T T T"
Si      -1.76899626       0.06421518      -1.43628501       0.00000000
Si       0.31293090      -2.26404936       0.27314508       0.00000000
Si      -0.39182337       1.28862045       1.86897553       0.00000000
Si       1.76937093       1.04668137      -1.12081783       0.00000000
Si       1.41376023      -2.66846490      -1.77209278       0.00000000
Si       2.06720100      -2.08109637       1.95953389       0.00000000
Si       2.91297780      -0.85774995      -1.90124699       0.00000000
Si       2.92014540       2.02051386       0.64375406       0.00000000
Si      -2.43066348       2.30940072      -1.45084819       0.00000000
Si      -0.84929544      -0.17192466      -3.57967050       0.00000000
