10
Lattice="16.28999089631971 0.0 0.0 0.0 16.28999089631971 0.0 0.0 0.0 34.185847837958455" Properties=species:S:1:pos:R:3:initial_magmoms:R:1 pbc="T T T"
Si       2.25442197       0.14286330      -0.54044437       0.00000000
Si      -0.93571389       1.28301669      -1.69852480       0.00000000
Si      -1.21122666      -1.99417293       0.20849960       0.00000000
Si       2.79222003      -0.37359486       1.64355055       0.00000000
Si       0.93535551      -1.21987665       2.88648850       0.00000000
Si      -2.94583473      -0.27958527       1.46975298       0.00000000
Si       0.10603161      -3.11785713       1.77544680       0.00000000
Si      -0.88969464       3.45009168      -0.77509616       0.00000000
Si      -3.02122485       0.29012490      -2.04971621       0.00000000
Si      -1.97407107       1.49947821       2.78923655       0.00000000
