10
Lattice="16.28999089631971 0.0 0.0 0.0 16.28999089631971 0.0 0.0 0.0 34.185847837958455" Properties=species:S:1:pos:R:3:initial_magmoms:R:1 pbc="T T T"
Si       1.35640314       1.33338537       1.37922880       0.00000000
Si      -1.35866745       1.35451350      -1.35981123       0.00000000
Si       1.35558864      -1.36049193      -1.35919588       0.00000000
Si      -1.35120663      -1.36417347       1.37598114       0.00000000
Si      -0.05222574       2.50533684       2.87376653       0.00000000
Si      -2.71564074       2.71357191      -0.00023930       0.00000000
Si      -0.00102627       2.71307589      -2.71740038       0.00000000
Si       2.71474479       2.71617831       0.00078627       0.00000000
Si       2.71410948      -0.00198738      -2.71729782       0.00000000
Si      -2.71555929      -0.00184077      -2.71740038       0.00000000
