10
Lattice="16.28999089631971 0.0 0.0 0.0 16.28999089631971 0.0 0.0 0.0 34.185847837958455" Properties=species:S:1:pos:R:3:initial_magmoms:R:1 pbc="T T T"
Si       1.33594290       1.36794039       1.36394772       0.00000000
Si      -1.35922131       1.35392773      -1.36162308       0.00000000
Si       1.35685926      -1.36259334      -1.36090518       0.00000000
Si      -1.35834165      -1.38279294       1.37844253       0.00000000
Si       2.55635712      -0.12919599       2.70208511       0.00000000
Si      -2.71578735       2.70994643      -0.00030767       0.00000000
Si       2.71586880       2.71312298      -0.00567485       0.00000000
Si      -0.00016290       2.71165688      -2.71781061       0.00000000
Si      -2.71474479      -2.71617831      -0.00078627       0.00000000
Si       2.71441899      -0.00333472      -2.71787898       0.00000000
