10
Lattice="16.28999089631971 0.0 0.0 0.0 16.28999089631971 0.0 0.0 0.0 34.185847837958455" Properties=species:S:1:pos:R:3:initial_magmoms:R:1 pbc="T T T"
Si       1.01493216      -1.66845438      -1.25691177       0.00000000
Si      -1.73695383       1.09292935      -1.21404269       0.00000000
Si       1.63334943       1.80350567       0.03774120       0.00000000
Si      -0.17860356      -1.59379731       2.16338422       0.00000000
Si      -1.72201590       0.29638745       2.34877417       0.00000000
Si      -2.95601598       1.67383727       0.72730432       0.00000000
Si       2.15251173      -0.09037692      -2.72851078       0.00000000
Si       1.58723244       1.94881247       2.40213831       0.00000000
Si      -0.71770482       2.46953861       2.62226111       0.00000000
Si      -0.46349937       2.71467053      -2.56342723       0.00000000
