10
Lattice="16.28999089631971 0.0 0.0 0.0 16.28999089631971 0.0 0.0 0.0 34.185847837958455" Properties=species:S:1:pos:R:3:initial_magmoms:R:1 pbc="T T T"
Si       1.04073552      -1.23650874       1.69302087       0.00000000
Si      -0.00864999       2.30003397       0.56540005       0.00000000
Si       1.28296782      -0.26769357      -2.00479598       0.00000000
Si      -2.09142423      -1.16019009      -0.19284248       0.00000000
Si      -1.50514713      -2.47665015      -2.02082915       0.00000000
Si       2.87927379      -2.02154013       0.49128509       0.00000000
Si       2.08570644      -2.51949285      -1.63873372       0.00000000
Si      -0.29157471      -0.67844592      -3.66742562       0.00000000
Si      -3.78784854       0.38848392      -0.45552668       0.00000000
Si      -0.39153015      -3.02358690       2.34289421       0.00000000
