10
Lattice="16.28999089631971 0.0 0.0 0.0 16.28999089631971 0.0 0.0 0.0 34.185847837958455" Properties=species:S:1:pos:R:3:initial_magmoms:R:1 pbc="T T T"
Si      -0.94920201      -1.23657390      -1.78819433       0.00000000
Si       1.55002608       1.18004110      -1.38439087       0.00000000
Si      -1.56959037       1.52576280       1.00851726       0.00000000
Si       0.96029550      -1.76854014       1.42753343       0.00000000
Si       0.94612320      -2.43673965      -2.53809551       0.00000000
Si      -0.44932707       1.86347730       3.13887793       0.00000000
Si       2.32073856      -0.51645816      -2.92562649       0.00000000
Si      -3.67969923       0.47156292       1.11555321       0.00000000
Si      -0.76836672      -3.43165140       1.73852226       0.00000000
Si      -1.88659377       0.21377367      -3.44005542       0.00000000
