10
Lattice="16.28999089631971 0.0 0.0 0.0 16.28999089631971 0.0 0.0 0.0 34.185847837958455" Properties=species:S:1:pos:R:3:initial_magmoms:R:1 pbc="T T T"
Si       0.92387106       0.84776907       1.99918950       0.00000000
Si       1.88265159      -0.33416721      -1.43023412       0.00000000
Si      -1.59777207      -1.70428653       0.54194855       0.00000000
Si      -1.26612396       1.74784858      -1.10427187       0.00000000
Si      -3.03195996      -1.79476119      -1.34302597       0.00000000
Si      -2.96543160      -0.81110583       2.22761946       0.00000000
Si       1.55729142      -0.90695619       3.37657226       0.00000000
Si      -0.57182787       2.22151291       3.09877791       0.00000000
Si      -0.01488906       3.77267929      -0.95771706       0.00000000
Si       2.87970289       1.67654725      -2.13955667       0.00000000
