10
Lattice="16.28999089631971 0.0 0.0 0.0 16.28999089631971 0.0 0.0 0.0 34.185847837958455" Properties=species:S:1:pos:R:3:initial_magmoms:R:1 pbc="T T T"
Si      -1.46098494      -0.24824331      -1.86880460       0.00000000
Si       1.42641171       1.83951567      -0.54991386       0.00000000
Si      -1.49887548       0.53235720       1.81902998       0.00000000
Si       1.46662521      -1.87261695       0.94917060       0.00000000
Si       0.51249969       1.74692331       2.78043912       0.00000000
Si       2.65558670      -1.61155341      -1.20741063       0.00000000
Si       1.62249444      -0.34358868       2.91947304       0.00000000
Si      -0.52222482      -3.17315354       1.08810196       0.00000000
Si      -2.01792375      -1.79940969       2.18769037       0.00000000
Si      -2.68667712       1.73568321      -1.46435161       0.00000000
