10
Lattice="16.28999089631971 0.0 0.0 0.0 16.28999089631971 0.0 0.0 0.0 34.185847837958455" Properties=species:S:1:pos:R:3:initial_magmoms:R:1 pbc="T T T"
Si      -2.14708716       0.92548377      -0.22313115       0.00000000
Si       0.32219991      -2.39326164       0.18275764       0.00000000
Si       0.46379259      -0.30131613      -2.45669896       0.00000000
Si       1.99031220       1.70100180       0.70867302       0.00000000
Si       2.47516776       0.91324998      -1.49528982       0.00000000
Si       1.99392858      -0.11049507       2.35468833       0.00000000
Si       2.52322326      -1.79567928       0.71414276       0.00000000
Si      -0.05525568      -2.63308302      -2.08803857       0.00000000
Si      -0.10845882      -0.45699966       3.53375888       0.00000000
Si      -2.54979225       2.01895002       1.83133689       0.00000000
