10
Lattice="16.28999089631971 0.0 0.0 0.0 16.28999089631971 0.0 0.0 0.0 34.185847837958455" Properties=species:S:1:pos:R:3:initial_magmoms:R:1 pbc="T T T"
Si      -0.61613897       1.57247370       1.62875144       0.00000000
Si      -1.12283942      -2.04763671       0.39522281       0.00000000
Si      -1.33910546       0.48834162      -1.94811581       0.00000000
Si       0.31642836      -1.35881406      -2.02667494       0.00000000
Si       2.20441656       1.08045054      -0.49401996       0.00000000
Si       0.17897008       0.27018594       3.41762949       0.00000000
Si       2.13186090      -0.96290190       2.95601773       0.00000000
Si      -2.70842657      -1.81757304       2.09873874       0.00000000
Si       2.08556472      -0.43686522      -3.27329676       0.00000000
Si      -0.51796963       2.28538926      -3.16844871       0.00000000
