10
Lattice="16.28999089631971 0.0 0.0 0.0 16.28999089631971 0.0 0.0 0.0 34.185847837958455" Properties=species:S:1:pos:R:3:initial_magmoms:R:1 pbc="T T T"
Si       0.03554478       1.97301222       1.21917057       0.00000000
Si       1.63993059      -1.16657577      -1.16153320       0.00000000
Si      -1.13627637       0.51460110      -2.03453769       0.00000000
Si      -0.81790461      -1.76427216       1.56584945       0.00000000
Si      -2.49911406      -1.34566803      -1.42845645       0.00000000
Si      -1.36596537      -3.09925395      -0.27464926       0.00000000
Si       1.46412891       1.10390814       2.98080248       0.00000000
Si       0.76167153      -3.36341259      -1.32531769       0.00000000
Si      -2.31324516       2.70747945       1.17007967       0.00000000
Si       3.61608745      -1.18610748       0.04208280       0.00000000
