10
Lattice="16.28999089631971 0.0 0.0 0.0 16.28999089631971 0.0 0.0 0.0 34.185847837958455" Properties=species:S:1:pos:R:3:initial_magmoms:R:1 pbc="T T T"
Si       1.15077447       0.97383249       1.76457189       0.00000000
Si      -1.76937093      -1.04668137       1.12081783       0.00000000
Si       1.14360687      -1.90443132      -0.78042916       0.00000000
Si      -0.48389445       1.83809844      -1.41249165       0.00000000
Si       1.85469795      -0.99295695       2.88829553       0.00000000
Si      -1.32776532       0.66549537      -3.27808278       0.00000000
Si      -0.60611832       2.07834336       2.88791948       0.00000000
Si       2.69768916      -2.19662505       1.03548991       0.00000000
Si       2.68356573       2.38783707       0.72874013       0.00000000
Si      -3.53836719      -0.98246619      -0.31546718       0.00000000
