10
Lattice="16.28999089631971 0.0 0.0 0.0 16.28999089631971 0.0 0.0 0.0 34.185847837958455" Properties=species:S:1:pos:R:3:initial_magmoms:R:1 pbc="T T T"
Si       1.04512309      -1.94251734       0.80083812       0.00000000
Si      -0.84299121       1.20366810       1.85280562       0.00000000
Si       2.14613812       0.93936285      -0.34746515       0.00000000
Si      -1.55408229       0.29219373      -1.81591907       0.00000000
Si      -2.39985909      -0.93115269       2.04486182       0.00000000
Si      -0.70727922      -2.80779327       2.11087473       0.00000000
Si      -1.54691469       3.17045754       0.72908198       0.00000000
Si      -2.69768916       2.19662505      -1.03548991       0.00000000
Si       1.56315323       3.11347512      -1.31981377       0.00000000
Si       2.84894900       1.04016537       2.17531509       0.00000000
