10
Lattice="16.28999089631971 0.0 0.0 0.0 16.28999089631971 0.0 0.0 0.0 34.185847837958455" Properties=species:S:1:pos:R:3:initial_magmoms:R:1 pbc="T T T"
Si      -1.24244644       1.47010734      -1.28371349       0.00000000
Si       1.46080575      -1.27931886      -1.26327034       0.00000000
Si       1.80439443       0.91877229       1.16525946       0.00000000
Si      -1.76913635      -0.92194884       1.24662182       0.00000000
Si       0.11885184       1.51731576       2.77927680       0.00000000
Si      -2.60340780       0.10865430      -2.60848421       0.00000000
Si       0.10867059      -2.60307684      -2.61149256       0.00000000
Si      -2.60353434       2.72225448       0.10484805       0.00000000
Si      -3.42467018       0.92520684       1.32518095       0.00000000
Si       2.82569598       0.10884978      -2.60691166       0.00000000
