10
Lattice="16.28999089631971 0.0 0.0 0.0 16.28999089631971 0.0 0.0 0.0 34.185847837958455" Properties=species:S:1:pos:R:3:initial_magmoms:R:1 pbc="T T T"
Si      -1.44060615       1.17388998       1.42394392       0.00000000
Si       1.34459289       1.36836000      -1.36678515       0.00000000
Si      -1.36796904      -1.35057132      -1.36579376       0.00000000
Si       1.29503871      -1.38761478       1.46366789       0.00000000
Si      -0.63752544      -2.22549093       2.56944395       0.00000000
Si       0.04812066       2.37887757       2.81117221       0.00000000
Si      -2.45035809      -0.50687964       2.87130515       0.00000000
Si       2.68993512      -2.71239903       0.01435806       0.00000000
Si       2.68501554       2.72991078      -0.00738415       0.00000000
Si       2.69946477       0.01003464      -2.72396406       0.00000000
