10
Lattice="16.28999089631971 0.0 0.0 0.0 16.28999089631971 0.0 0.0 0.0 34.185847837958455" Properties=species:S:1:pos:R:3:initial_magmoms:R:1 pbc="T T T"
Si      -1.22041422       1.49713638      -1.33813739       0.00000000
Si       1.49931531      -1.22704425      -1.34695734       0.00000000
Si       1.42009704       1.15439967       1.49217891       0.00000000
Si      -1.13757957      -1.57807746       1.47159901       0.00000000
Si      -0.51916230       1.89388259       2.76625198       0.00000000
Si      -2.15251173       0.09037692       2.72851078       0.00000000
Si       2.18962035      -0.81826299       2.65757511       0.00000000
Si      -2.55635712       0.12919599      -2.70208511       0.00000000
Si       0.15889266      -2.58859503      -2.70635834       0.00000000
Si       2.72215674       2.65633604       0.04409977       0.00000000
