10
Lattice="16.28999089631971 0.0 0.0 0.0 16.28999089631971 0.0 0.0 0.0 34.185847837958455" Properties=species:S:1:pos:R:3:initial_magmoms:R:1 pbc="T T T"
Si       0.22797855       1.60133958       1.71226752       0.00000000
Si      -2.31281836      -0.49348926      -0.13650417       0.00000000
Si       1.19531133      -1.80716373       0.97952765       0.00000000
Si       0.91569348       0.25562268      -2.20054426       0.00000000
Si       1.14578973      -3.39307016      -0.72747525       0.00000000
Si       0.73521657       0.13540248       3.61467683       0.00000000
Si       1.85171688      -1.98441522      -2.52083164       0.00000000
Si       0.11748348      -2.11657599       3.08069359       0.00000000
Si      -3.42281312       1.59702273      -0.27553809       0.00000000
Si      -2.46868760      -2.02251753      -2.10680661       0.00000000
