10
Lattice="16.28999089631971 0.0 0.0 0.0 16.28999089631971 0.0 0.0 0.0 34.185847837958455" Properties=species:S:1:pos:R:3:initial_magmoms:R:1 pbc="T T T"
Si       1.09429704      -1.21228551      -1.69107228       0.00000000
Si       0.57919095      -0.32237910       2.26895017       0.00000000
Si      -2.17381742      -0.92260044       0.21393516       0.00000000
Si      -0.32246055       2.18507544      -0.99856917       0.00000000
Si      -2.35392292       0.67481325       1.87567596       0.00000000
Si       0.58705902       0.25365159      -3.59348159       0.00000000
Si       0.18295299      -2.60012835       2.61474022       0.00000000
Si       3.39719805      -1.44549315      -0.94626480       0.00000000
Si      -1.25290788       3.55669344       0.72737269       0.00000000
Si      -1.22387422       1.83695814      -3.19931854       0.00000000
