10
Lattice="16.28999089631971 0.0 0.0 0.0 16.28999089631971 0.0 0.0 0.0 34.185847837958455" Properties=species:S:1:pos:R:3:initial_magmoms:R:1 pbc="T T T"
Si       1.35736072       1.35654975       1.35625590       0.00000000
Si      -1.35732447       1.35742941      -1.35707636       0.00000000
Si       1.35733628      -1.35741801      -1.35734985       0.00000000
Si      -1.35936072      -1.35777476       1.35776008       0.00000000
Si      -0.00056732       2.71235016      -2.71350319       0.00000000
Si      -2.71359729       0.00128691       2.71258017       0.00000000
Si      -2.71538919      -0.00114030      -2.71329807       0.00000000
Si       0.00343012       2.71235016       2.71702433       0.00000000
Si       2.71484062       2.71467963       0.00023930       0.00000000
Si       2.71550851       0.00061902       2.71401598       0.00000000
