10
Lattice="16.28999089631971 0.0 0.0 0.0 16.28999089631971 0.0 0.0 0.0 34.185847837958455" Properties=species:S:1:pos:R:3:initial_magmoms:R:1 pbc="T T T"
Si      -1.28572083       1.41078606       1.39576109       0.00000000
Si       1.38983022      -1.32515892       1.38333794       0.00000000
Si      -1.84775841      -0.88511715      -1.18643863       0.00000000
Si       1.75314609       0.92219319      -1.41084530       0.00000000
Si       3.35676627      -0.87573411      -1.26657270       0.00000000
Si      -2.68150179       2.68778877       0.03214155       0.00000000
Si       2.71974582       2.65867528      -0.08587832       0.00000000
Si       2.62573623      -2.78169669      -0.07768738       0.00000000
Si       0.04595409      -2.65797414       2.75242722       0.00000000
Si      -2.67116741       0.05597244       2.74528237       0.00000000
