10
Lattice="16.28999089631971 0.0 0.0 0.0 16.28999089631971 0.0 0.0 0.0 34.185847837958455" Properties=species:S:1:pos:R:3:initial_magmoms:R:1 pbc="T T T"
Si       0.27409554      -0.58412682      -2.26027760       0.00000000
Si       1.84775841       0.88511715       1.18643863       0.00000000
Si      -0.93705619      -1.92955050       1.07007336       0.00000000
Si      -1.89770192       1.78052958       0.02339988       0.00000000
Si       0.21781359       1.77921009      -2.71737683       0.00000000
Si      -1.95500688       0.26368623      -2.74906713       0.00000000
Si      -2.19084929      -0.45185202       2.56361970       0.00000000
Si       0.56203758       2.29590321       2.58219972       0.00000000
Si      -0.83374338       3.57290592       1.21858018       0.00000000
Si      -3.74517593       0.73951713       1.23780973       0.00000000
