10
Lattice="16.28999089631971 0.0 0.0 0.0 16.28999089631971 0.0 0.0 0.0 34.185847837958455" Properties=species:S:1:pos:R:3:initial_magmoms:R:1 pbc="T T T"
Si      -1.35981427       1.35386190      -1.35967449       0.00000000
Si       1.35627282      -1.35870003      -1.35844379       0.00000000
Si       1.35042471       1.34939844       1.37786137       0.00000000
Si      -1.35538176      -1.36642149       1.35977704       0.00000000
Si      -2.71209671       2.71052023       0.00225627       0.00000000
Si       2.71438641       2.71453302       0.00071790       0.00000000
Si      -2.71258541      -2.71655298       0.00116232       0.00000000
Si      -0.00058644       2.71357613      -2.71589620       0.00000000
Si       2.71446786      -0.00087966      -2.71644317       0.00000000
Si      -2.71551703      -0.00120546      -2.71606713       0.00000000
