10
Lattice="16.28999089631971 0.0 0.0 0.0 16.28999089631971 0.0 0.0 0.0 34.185847837958455" Properties=species:S:1:pos:R:3:initial_magmoms:R:1 pbc="T T T"
Si      -1.37838391      -1.16563095      -1.47173576       0.00000000
Si       0.76592485      -1.87626591       1.29584947       0.00000000
Si      -1.98183067       0.69307434       1.21923894       0.00000000
Si       1.55115172       1.61147196      -1.16026832       0.00000000
Si      -2.36368456      -2.73608469       0.02040896       0.00000000
Si       2.70577063      -2.46669696       0.12600911       0.00000000
Si       0.06202906      -2.44302759      -2.78238771       0.00000000
Si      -2.75135398       2.66573700       0.05384274       0.00000000
Si      -2.67213571       0.28429308      -2.78529351       0.00000000
Si       2.76783553       0.27279234      -2.76430339       0.00000000
