10
Lattice="16.28999089631971 0.0 0.0 0.0 16.28999089631971 0.0 0.0 0.0 34.185847837958455" Properties=species:S:1:pos:R:3:initial_magmoms:R:1 pbc="T T T"
Si       1.03139809       0.61363520      -2.02411100       0.00000000
Si       0.45262742      -2.27426319       0.47832865       0.00000000
Si       0.01331708       1.54204628       1.79783474       0.00000000
Si      -1.68319098      -0.68036814      -1.57740427       0.00000000
Si       0.14546970      -1.37503890      -2.97591390       0.00000000
Si      -1.23383133       3.28550471       0.94698270       0.00000000
Si       1.05650098      -3.12181560      -1.67763723       0.00000000
Si      -1.64844441      -3.15659475       1.17472895       0.00000000
Si       2.25840976       2.28083525       2.09378179       0.00000000
Si       3.28671601       1.00434107      -1.71438704       0.00000000
