10
Lattice="16.28999089631971 0.0 0.0 0.0 16.28999089631971 0.0 0.0 0.0 34.24959146834617" Properties=species:S:1:pos:R:3:initial_magmoms:R:1 pbc="T T T"
Si      -1.34425799      -0.16395885      -1.86595304       0.00000000
Si       2.01010455       0.89502147      -0.79030976       0.00000000
Si       1.12982553      -2.04680592       0.57919517       0.00000000
Si      -1.04308847       1.04752845       1.91229276       0.00000000
Si       2.74971942       1.55611854       1.35614758       0.00000000
Si      -0.62521020      -0.81026460       3.34666645       0.00000000
Si      -1.37646332       2.11651083      -2.56950854       0.00000000
Si       1.58786775      -1.71144369       2.85391730       0.00000000
Si       2.96763075      -0.86346774      -2.06511452       0.00000000
Si      -0.57366375      -1.98057078      -3.15791685       0.00000000
