10
Lattice="16.28999089631971 0.0 0.0 0.0 16.28999089631971 0.0 0.0 0.0 34.24959146834617" Properties=species:S:1:pos:R:3:initial_magmoms:R:1 pbc="T T T"
Si       0.00908819       0.39034098      -2.26838596       0.00000000
Si       2.17497890       0.25295112       0.89141462       0.00000000
Si      -1.90235013      -1.25812557       0.71307689       0.00000000
Si      -1.24579797       0.97984580       1.84119057       0.00000000
Si       1.05159606       1.47951874       2.51285968       0.00000000
Si      -0.65831541      -3.28217436       0.62279492       0.00000000
Si       2.28840617       0.69217580      -2.67068189       0.00000000
Si      -0.54496959      -1.72641420      -3.09458932       0.00000000
Si      -1.49580060       2.18117303      -2.52686777       0.00000000
Si       3.48137174       1.29547595      -0.75058022       0.00000000
