10
Lattice="16.28999089631971 0.0 0.0 0.0 16.28999089631971 0.0 0.0 0.0 34.24959146834617" Properties=species:S:1:pos:R:3:initial_magmoms:R:1 pbc="T T T"
Si      -0.67696516       0.21618459       2.27139993       0.00000000
Si       2.21172588      -0.46854601       0.77297946       0.00000000
Si      -1.46636553      -1.93110603      -0.28745698       0.00000000
Si      -0.61584508       2.03281281      -1.37738234       0.00000000
Si       2.93329143      -1.05801595      -1.41440617       0.00000000
Si      -1.89828089       0.59316777      -2.87703579       0.00000000
Si       0.70042113       2.47792077       2.48782322       0.00000000
Si      -3.25919636      -0.83936343      -1.25980343       0.00000000
Si       1.21712364      -1.94607801      -2.91618310       0.00000000
Si      -0.27226780      -3.29801543      -1.72316641       0.00000000
