10
Lattice="16.28999089631971 0.0 0.0 0.0 16.28999089631971 0.0 0.0 0.0 34.24959146834617" Properties=species:S:1:pos:R:3:initial_magmoms:R:1 pbc="T T T"
Si      -1.35337320       1.35917244       1.36337425       0.00000000
Si       1.36344042      -1.35790182       1.36258651       0.00000000
Si      -1.37212299      -1.34136747      -1.37489582       0.00000000
Si       1.37911140       1.37427327      -1.37645075       0.00000000
Si       0.07092666      -2.58843539      -2.72588883       0.00000000
Si      -2.70888039       2.70866862       0.00527444       0.00000000
Si      -2.71078632      -2.71625976       0.00208923       0.00000000
Si      -2.71052568      -0.00091224       2.71931633       0.00000000
Si       2.71757925       2.71450044       0.00729517       0.00000000
Si       0.00412137       2.71451673       2.71976158       0.00000000
