10
Lattice="16.28999089631971 0.0 0.0 0.0 16.28999089631971 0.0 0.0 0.0 34.24959146834617" Properties=species:S:1:pos:R:3:initial_magmoms:R:1 pbc="T T T"
Si      -1.35637056      -1.35777545       1.35649008       0.00000000
Si       1.35843939       1.35728278       1.35666133       0.00000000
Si      -1.35609363       1.35635751      -1.36142202       0.00000000
Si       1.35879777      -1.35888317      -1.36590872       0.00000000
Si      -2.69850366      -0.00300131      -2.71861422       0.00000000
Si      -2.71347417      -0.00094666       2.71373365       0.00000000
Si      -2.71298547       2.71509012       0.00006850       0.00000000
Si       0.00153126       2.71403127       2.71411039       0.00000000
Si       0.00123804      -2.71476503       2.71438439       0.00000000
Si       2.71583622      -0.00057751       2.71404189       0.00000000
