10
Lattice="16.28999089631971 0.0 0.0 0.0 16.28999089631971 0.0 0.0 0.0 34.24959146834617" Properties=species:S:1:pos:R:3:initial_magmoms:R:1 pbc="T T T"
Si       1.86994539       0.82526769       1.18955748       0.00000000
Si       1.27270512      -1.39949019      -1.43868914       0.00000000
Si      -0.82777635      -1.73113504       1.42255758       0.00000000
Si      -1.44291933       1.32398604      -1.41981761       0.00000000
Si      -2.54394414      -2.61919710      -0.07921935       0.00000000
Si       0.93317265       1.18693827       3.34375523       0.00000000
Si       2.54262465      -2.69740979       0.11651718       0.00000000
Si       2.65930992       2.68780113      -0.04856595       0.00000000
Si       2.63309931      -0.04510701      -2.80428962       0.00000000
Si      -0.08156403       2.67323787      -2.80305663       0.00000000
