10
Lattice="16.28999089631971 0.0 0.0 0.0 16.28999089631971 0.0 0.0 0.0 34.24959146834617" Properties=species:S:1:pos:R:3:initial_magmoms:R:1 pbc="T T T"
Si      -1.98241155       0.06018341       1.26381063       0.00000000
Si       1.73825703       0.18591614       1.69443099       0.00000000
Si      -0.56003391      -1.92656847      -1.43190772       0.00000000
Si       1.85538213      -2.17621272       1.71960445       0.00000000
Si      -2.70581787      -1.06637502      -1.97544904       0.00000000
Si      -1.42907283      -1.47253359       2.94461027       0.00000000
Si       2.08529919       0.83986353      -2.86929538       0.00000000
Si       0.36106785       3.52928552      -1.24141139       0.00000000
Si      -0.30499767      -3.27876879       1.99911552       0.00000000
Si       2.92074813      -2.55159948      -0.37061504       0.00000000
