10
Lattice="16.28999089631971 0.0 0.0 0.0 16.28999089631971 0.0 0.0 0.0 34.24959146834617" Properties=species:S:1:pos:R:3:initial_magmoms:R:1 pbc="T T T"
Si      -0.50083605       2.02018806       1.02680333       0.00000000
Si       0.55333872      -1.53271700       1.68079964       0.00000000
Si       1.98241155      -0.06018341      -1.26381063       0.00000000
Si      -1.81721466      -1.06465643      -1.13071664       0.00000000
Si      -0.72340632      -1.12655843      -3.23925967       0.00000000
Si      -1.48260177      -2.36083544       2.33325472       0.00000000
Si       1.42237764      -1.98675188      -2.69571835       0.00000000
Si      -2.55179592       1.52015022       2.10354258       0.00000000
Si      -0.61677198       2.48244939      -2.68016903       0.00000000
Si       3.72066858       0.12573274       0.43062035       0.00000000
