10
Lattice="16.28999089631971 0.0 0.0 0.0 16.28999089631971 0.0 0.0 0.0 34.24959146834617" Properties=species:S:1:pos:R:3:initial_magmoms:R:1 pbc="T T T"
Si       2.22666381      -0.35471475       0.62389091       0.00000000
Si      -1.41263622       0.22217931       1.85742488       0.00000000
Si       0.16708653      -2.09903166      -1.05519625       0.00000000
Si       0.17304867       1.62768051      -1.74155845       0.00000000
Si       2.54231514      -1.90472454      -1.10345395       0.00000000
Si      -3.39605775       0.46600803       0.61258854       0.00000000
Si      -1.12036104       3.38188545      -0.95450240       0.00000000
Si       2.40987744       2.42093835      -1.58335950       0.00000000
Si      -1.02253959       2.33580681       2.85795876       0.00000000
Si       3.59329707       1.39997889       0.15974018       0.00000000
