10
Lattice="16.28999089631971 0.0 0.0 0.0 16.28999089631971 0.0 0.0 0.0 34.24959146834617" Properties=species:S:1:pos:R:3:initial_magmoms:R:1 pbc="T T T"
Si      -1.29340971       1.75420494       0.78705605       0.00000000
Si       2.23682877       0.79325784       0.15819895       0.00000000
Si      -0.17304867      -1.62768051       1.74155845       0.00000000
Si      -0.93535551      -0.23597694      -2.36777833       0.00000000
Si       2.05361514      -1.98239526       2.36544936       0.00000000
Si      -3.46791294       0.89541243       1.10571443       0.00000000
Si      -0.52580862       2.33688195       2.92902670       0.00000000
Si      -0.00596214      -3.72671217       0.68636220       0.00000000
Si      -0.78084486       3.68908227      -0.50199654       0.00000000
Si       0.03445335       1.51338987      -3.54079324       0.00000000
