10
Lattice="16.28999089631971 0.0 0.0 0.0 16.28999089631971 0.0 0.0 0.0 34.24959146834617" Properties=species:S:1:pos:R:3:initial_magmoms:R:1 pbc="T T T"
Si      -0.65130678       1.71294237      -1.45416997       0.00000000
Si      -1.81315845      -1.55461986       0.04359975       0.00000000
Si       0.79917111       0.83339640       2.14522436       0.00000000
Si       1.83892923      -0.89393004      -1.38162929       0.00000000
Si       1.38463371       2.54106081      -2.10662505       0.00000000
Si      -0.91140921      -3.25723437       1.40783024       0.00000000
Si      -2.27120067      -1.88998209      -2.23112238       0.00000000
Si       3.68758359      -1.05052581       0.02171425       0.00000000
Si       1.62896742       3.13009092       1.78985040       0.00000000
Si       2.12165847      -0.79294833       3.28789412       0.00000000
