10
Lattice="16.28999089631971 0.0 0.0 0.0 16.28999089631971 0.0 0.0 0.0 34.24959146834617" Properties=species:S:1:pos:R:3:initial_magmoms:R:1 pbc="T T T"
Si      -0.95865021       0.11953602      -2.24218501       0.00000000
Si       2.43696771       0.41873445       0.00506894       0.00000000
Si       0.26748180       2.42519234       0.67519682       0.00000000
Si      -0.26818227      -2.46516570       0.57128350       0.00000000
Si      -2.28876129      -0.03686427       2.43247584       0.00000000
Si       1.22810310       1.95986619       2.75277447       0.00000000
Si      -3.45968160      -1.20963024       0.33537219       0.00000000
Si       2.35729332       2.81439302      -0.38938382       0.00000000
Si       0.68453838      -3.34510263      -1.41820788       0.00000000
Si      -2.72886822      -1.43176068      -2.09456919       0.00000000
