10
Lattice="16.28999089631971 0.0 0.0 0.0 16.28999089631971 0.0 0.0 0.0 34.24959146834617" Properties=species:S:1:pos:R:3:initial_magmoms:R:1 pbc="T T T"
Si      -1.35679410      -1.35525943       1.35690107       0.00000000
Si      -1.35739683       1.35786029      -1.35738057       0.00000000
Si       1.35767376       1.35861126       1.35652433       0.00000000
Si       1.35770634      -1.35705133      -1.35809981       0.00000000
Si      -2.71156824      -0.00353945       2.71380215       0.00000000
Si      -2.71459818      -2.71418752       0.00034250       0.00000000
Si      -2.71430496       2.71460878       0.00006850       0.00000000
Si       0.00048870       2.71198609       2.71777510       0.00000000
Si       2.71513575      -2.71472509      -0.00027400       0.00000000
Si      -2.71583622       0.00057751      -2.71404189       0.00000000
