10
Lattice="16.28999089631971 0.0 0.0 0.0 16.28999089631971 0.0 0.0 0.0 34.24959146834617" Properties=species:S:1:pos:R:3:initial_magmoms:R:1 pbc="T T T"
Si      -1.19296557      -0.60330015      -1.92010167       0.00000000
Si      -1.30639284      -1.04252483       1.64199483       0.00000000
Si       2.04674076      -1.09615151       0.34386609       0.00000000
Si      -0.04277754       2.38263404       0.07709587       0.00000000
Si      -1.30272759       1.36768559      -3.12986642       0.00000000
Si       1.21694445      -3.39284603       0.69924005       0.00000000
Si       3.17485584       0.35510571       1.97517504       0.00000000
Si      -1.65644865       3.05269061      -1.50890084       0.00000000
Si      -3.48137174      -1.29547595       0.75058022       0.00000000
Si      -0.23353344      -2.51330006      -2.90015428       0.00000000
