10
Lattice="16.28999089631971 0.0 0.0 0.0 16.28999089631971 0.0 0.0 0.0 34.24959146834617" Properties=species:S:1:pos:R:3:initial_magmoms:R:1 pbc="T T T"
Si       1.33846785       1.34022717       1.38374592       0.00000000
Si      -1.37911140      -1.37427327       1.37645075       0.00000000
Si      -1.17695250       1.56367710      -1.44883388       0.00000000
Si       1.50783498      -1.21850829      -1.50364353       0.00000000
Si      -1.21691187      -0.07172487      -3.21332043       0.00000000
Si      -0.13502781      -2.40823215      -2.78766627       0.00000000
Si       2.67323787       2.69900865       0.01927226       0.00000000
Si      -2.72683197       2.68203447       0.01209696       0.00000000
Si       2.69716788      -0.01451439       2.73934551       0.00000000
Si      -0.01588275       2.69744481       2.73934551       0.00000000
