10
Lattice="16.28999089631971 0.0 0.0 0.0 16.28999089631971 0.0 0.0 0.0 34.24959146834617" Properties=species:S:1:pos:R:3:initial_magmoms:R:1 pbc="T T T"
Si       1.35668007      -1.35669636      -1.35734632       0.00000000
Si       1.35870003       1.35725022       1.35703807       0.00000000
Si      -1.35759231      -1.35809730       1.35748332       0.00000000
Si      -1.35772263       1.35780408      -1.35772306       0.00000000
Si       2.71445157      -2.71425609       0.00006850       0.00000000
Si       2.71443528       0.00304623      -2.71458989       0.00000000
Si      -2.71521720       0.00245979      -2.71411039       0.00000000
Si       0.00159642      -2.71461447      -2.71489813       0.00000000
Si       0.00138465       2.71500543      -2.71458989       0.00000000
Si       2.71629234      -0.00221544       2.71339115       0.00000000
