10
Lattice="16.28999089631971 0.0 0.0 0.0 16.28999089631971 0.0 0.0 0.0 34.24959146834617" Properties=species:S:1:pos:R:3:initial_magmoms:R:1 pbc="T T T"
Si      -1.36663326      -1.75469364       0.46415072       0.00000000
Si      -1.18341963       1.02095946      -1.74309968       0.00000000
Si       0.33630705       0.97176366       2.10515232       0.00000000
Si       2.07707274      -0.96497073      -0.56141962       0.00000000
Si       2.91384117       1.21199229      -0.04346276       0.00000000
Si       1.62957015       2.89676925      -1.19438667       0.00000000
Si      -0.72031122       3.29175288      -1.34200249       0.00000000
Si      -0.81922410      -0.40149963       3.56432273       0.00000000
Si      -1.05098193      -3.30470343      -1.26319414       0.00000000
Si       2.62589913       1.19273751       2.30410830       0.00000000
