10
Lattice="16.28999089631971 0.0 0.0 0.0 16.28999089631971 0.0 0.0 0.0 34.24959146834617" Properties=species:S:1:pos:R:3:initial_magmoms:R:1 pbc="T T T"
Si       1.11276990      -2.06509959      -0.25265938       0.00000000
Si       1.86432534       1.41594309       0.53419118       0.00000000
Si      -1.20358665       0.37825380      -2.21632655       0.00000000
Si      -1.10273526       0.28606869       2.28879873       0.00000000
Si      -0.46056717      -3.59780940       0.45223186       0.00000000
Si      -3.30511068       1.00620072      -1.41019347       0.00000000
Si       1.39215969       3.43248219      -0.53456792       0.00000000
Si      -0.63962685       2.55686211       2.68989592       0.00000000
Si      -0.79377912       3.71477160       0.50004431       0.00000000
Si       1.71025452       2.16187848       2.83751174       0.00000000
