10
Lattice="16.28999089631971 0.0 0.0 0.0 16.28999089631971 0.0 0.0 0.0 34.24959146834617" Properties=species:S:1:pos:R:3:initial_magmoms:R:1 pbc="T T T"
Si       1.15553115       1.37326329      -1.45917041       0.00000000
Si      -1.94795820       1.18073178       0.53723939       0.00000000
Si       1.08271485       0.48218400       2.05035294       0.00000000
Si      -0.16000038      -2.20545423      -0.97409318       0.00000000
Si      -0.39447864      -0.94934862       3.22055938       0.00000000
Si      -0.54740916      -1.35319401      -3.10017200       0.00000000
Si      -2.52683964      -0.14310765       2.40144570       0.00000000
Si       0.81922410       0.40149963      -3.56432273       0.00000000
Si       0.45991557       3.59435592      -1.03036529       0.00000000
Si      -1.24840044       3.48387714       0.71174116       0.00000000
