10
Lattice="16.28999089631971 0.0 0.0 0.0 16.28999089631971 0.0 0.0 0.0 34.24959146834617" Properties=species:S:1:pos:R:3:initial_magmoms:R:1 pbc="T T T"
Si       1.42636869      -0.47428335       1.78574045       0.00000000
Si      -0.11712510       2.36212886      -0.02517346       0.00000000
Si       1.06536600      -0.37538676      -2.09021949       0.00000000
Si      -2.16037980      -1.10255607       0.27951107       0.00000000
Si      -1.85538213       2.17621272      -1.71960445       0.00000000
Si      -3.28445496       0.70367913       1.22500582       0.00000000
Si      -0.28194732      -0.58476213       3.52784689       0.00000000
Si       0.60225759      -2.64618018      -2.49131668       0.00000000
Si       2.12198427      -2.69537598       1.35693532       0.00000000
Si      -1.88696844       1.09939581       3.06318242       0.00000000
