10
Lattice="16.28999089631971 0.0 0.0 0.0 16.28999089631971 0.0 0.0 0.0 34.24959146834617" Properties=species:S:1:pos:R:3:initial_magmoms:R:1 pbc="T T T"
Si      -1.60502112       1.68415794      -0.46466447       0.00000000
Si       0.54102348       0.44002548       2.27095468       0.00000000
Si      -0.69955776      -2.30314536      -0.17450177       0.00000000
Si       1.70831601       0.11047878      -1.74210644       0.00000000
Si       2.55384846      -0.78134985       2.22454646       0.00000000
Si       0.28194732       0.58476213      -3.52784689       0.00000000
Si      -2.54821212      -2.14654959      -1.57784531       0.00000000
Si      -2.75817393       1.87747137       1.59363438       0.00000000
Si       1.24840044      -3.48387714      -0.71174116       0.00000000
Si      -1.87843248      -0.51779394      -3.24833582       0.00000000
