10
Lattice="16.28999089631971 0.0 0.0 0.0 16.28999089631971 0.0 0.0 0.0 34.24959146834617" Properties=species:S:1:pos:R:3:initial_magmoms:R:1 pbc="T T T"
Si      -1.47318615      -1.61928043      -0.81346250       0.00000000
Si      -0.67355892       2.24655553       0.12713455       0.00000000
Si       0.06261876      -0.86246332       2.43956551       0.00000000
Si       1.26724797       0.62651014      -2.39689050       0.00000000
Si       3.06007880      -0.46523246      -1.42454405       0.00000000
Si       2.91435840      -2.19218344       0.28070981       0.00000000
Si      -2.76734520       2.06749585       1.21089498       0.00000000
Si       0.22693599       2.80883746       2.41319331       0.00000000
Si       2.27307402      -1.68356077       2.45302561       0.00000000
Si      -1.00102050      -3.63581953       0.25529660       0.00000000
