10
Lattice="16.28999089631971 0.0 0.0 0.0 16.28999089631971 0.0 0.0 0.0 34.24959146834617" Properties=species:S:1:pos:R:3:initial_magmoms:R:1 pbc="T T T"
Si      -1.48185243       1.69401828      -0.71848833       0.00000000
Si       1.24579797      -0.97984580      -1.84119057       0.00000000
Si       2.29739403       0.49967294       0.67166911       0.00000000
Si      -1.34781831      -1.67396270       1.17849485       0.00000000
Si      -0.65655216      -2.23797137      -1.12811367       0.00000000
Si       0.32640273       3.13872951      -1.17602888       0.00000000
Si       1.94127183       2.78575779       0.44010750       0.00000000
Si       3.42077687      -0.72689468      -0.94977595       0.00000000
Si      -3.17441601       2.23048056       0.84712987       0.00000000
Si      -2.10035115       1.56832464      -2.98848402       0.00000000
