10
Lattice="16.28999089631971 0.0 0.0 0.0 16.28999089631971 0.0 0.0 0.0 34.24959146834617" Properties=species:S:1:pos:R:3:initial_magmoms:R:1 pbc="T T T"
Si      -1.35610992      -1.35664749       1.38523578       0.00000000
Si       1.36036065       1.35555606       1.38342055       0.00000000
Si      -1.26633573       1.48315563      -1.43171592       0.00000000
Si       1.40566966      -1.35475785      -1.44006255       0.00000000
Si      -2.69773803       2.72104902       0.01788857       0.00000000
Si      -2.71632492      -2.70467757       0.00797331       0.00000000
Si       2.72639933      -2.70958086       0.00741504       0.00000000
Si       2.70835001       2.73250089       0.01769677       0.00000000
Si      -2.71230129      -0.00081450       2.74470557       0.00000000
Si       0.00203625      -2.71549413       2.74432882       0.00000000
