10
Lattice="16.28999089631971 0.0 0.0 0.0 16.28999089631971 0.0 0.0 0.0 34.24959146834617" Properties=species:S:1:pos:R:3:initial_magmoms:R:1 pbc="T T T"
Si       1.35739708      -1.35461124       1.35837381       0.00000000
Si      -1.35816246      -1.35669636      -1.35676407       0.00000000
Si       1.35743380       1.35817875      -1.35693532       0.00000000
Si      -1.35681039       1.35576783       1.36162752       0.00000000
Si       2.71528303      -2.71322982       0.00003425       0.00000000
Si       0.00000000      -2.71463076      -2.71414464       0.00000000
Si       2.71517389       0.00047241      -2.71424739       0.00000000
Si      -2.71606428      -2.71336014      -0.00006850       0.00000000
Si      -2.71551042       0.00068418      -2.71400764       0.00000000
Si       2.71395540       2.71585251       0.00061649       0.00000000
