10
Lattice="16.28999089631971 0.0 0.0 0.0 16.28999089631971 0.0 0.0 0.0 34.24959146834617" Properties=species:S:1:pos:R:3:initial_magmoms:R:1 pbc="T T T"
Si       1.65558528       0.92300769      -1.41464592       0.00000000
Si       1.73482067      -0.98945460       1.30237569       0.00000000
Si      -1.15263153      -1.78810443      -1.08718539       0.00000000
Si      -1.91071926       1.85834691       0.11045499       0.00000000
Si       1.93080876       1.63463634       1.84074532       0.00000000
Si      -1.25486757      -0.41115960       3.26617987       0.00000000
Si       0.31040595       2.29954527      -2.69993105       0.00000000
Si      -2.39414130      -0.46675737      -2.69458811       0.00000000
Si       3.36565151       1.75549185      -0.03459211       0.00000000
Si       1.14924321      -1.23326703       3.53342958       0.00000000
