10
Lattice="16.28999089631971 0.0 0.0 0.0 16.28999089631971 0.0 0.0 0.0 34.24959146834617" Properties=species:S:1:pos:R:3:initial_magmoms:R:1 pbc="T T T"
Si       0.27227106       1.12387968      -1.97538054       0.00000000
Si      -2.28245706       0.15016122       0.54008211       0.00000000
Si       0.65174661      -2.27165679      -0.10836577       0.00000000
Si       1.57392351       1.43065296       1.10417320       0.00000000
Si       0.93411747      -1.08828603       2.70332177       0.00000000
Si       2.67638184       0.30177225      -1.70813083       0.00000000
Si       2.90900304      -1.72237428      -0.53604066       0.00000000
Si      -3.26335941      -0.88826112      -1.32361045       0.00000000
Si       0.20000862       2.84905584       2.35503748       0.00000000
Si      -0.24874830      -2.83393872      -2.39442453       0.00000000
