10
Lattice="16.28999089631971 0.0 0.0 0.0 16.28999089631971 0.0 0.0 0.0 34.24959146834617" Properties=species:S:1:pos:R:3:initial_magmoms:R:1 pbc="T T T"
Si      -2.06156466       0.46437903       1.02611833       0.00000000
Si       0.60536898      -2.27509398       0.05904633       0.00000000
Si       1.23818661       0.73731798       1.89400347       0.00000000
Si       2.20612212       1.31621571      -0.26759221       0.00000000
Si       0.63980604       2.51893899      -1.59914857       0.00000000
Si      -0.93411747       1.08828603      -2.70332177       0.00000000
Si      -0.28237086      -1.18337076      -2.81168753       0.00000000
Si       3.33612588      -0.39475557      -1.35738057       0.00000000
Si      -1.66366512      -0.31571649       3.23648545       0.00000000
Si      -3.75212457      -0.30064824      -0.45743780       0.00000000
