10
Lattice="16.28999089631971 0.0 0.0 0.0 16.28999089631971 0.0 0.0 0.0 34.24959146834617" Properties=species:S:1:pos:R:3:initial_magmoms:R:1 pbc="T T T"
Si       1.35910771       1.33338537       1.36837469       0.00000000
Si      -1.35739708       1.35461124      -1.35837381       0.00000000
Si       1.35788596      -1.35861858      -1.35833956       0.00000000
Si      -1.38031711      -1.34322453       1.37693710       0.00000000
Si      -0.01774006       2.72435589       2.64629616       0.00000000
Si      -2.71420747       2.71037907       0.00325371       0.00000000
Si       2.71564768       2.71228500       0.00109599       0.00000000
Si       0.00003672       2.71278999      -2.71530913       0.00000000
Si       2.71154260      -2.71725345       0.00273997       0.00000000
Si       2.71403497      -0.00161271      -2.71534338       0.00000000
