10
Lattice="16.28999089631971 0.0 0.0 0.0 16.28999089631971 0.0 0.0 0.0 34.24959146834617" Properties=species:S:1:pos:R:3:initial_magmoms:R:1 pbc="T T T"
Si       1.25499789      -1.28692629       1.53625943       0.00000000
Si      -0.75034998      -1.94470020      -1.26527107       0.00000000
Si       1.12456386       1.71862758      -1.35747103       0.00000000
Si      -1.47603690       1.40299254       1.50835628       0.00000000
Si       2.68640019      -2.52481968       0.08665494       0.00000000
Si       2.61210150       2.74613562       0.17717324       0.00000000
Si      -0.72448146       3.39222960      -1.54608363       0.00000000
Si      -2.67867873       2.78791947      -0.08531578       0.00000000
Si      -2.78506872      -2.69562033      -0.03483870       0.00000000
Si       2.59616988       0.06540435       2.90891533       0.00000000
