10
Lattice="16.28999089631971 0.0 0.0 0.0 16.28999089631971 0.0 0.0 0.0 34.24959146834617" Properties=species:S:1:pos:R:3:initial_magmoms:R:1 pbc="T T T"
Si      -1.35430173       1.35537687       1.35631883       0.00000000
Si      -1.35586557      -1.35840681      -1.35809981       0.00000000
Si       1.35930276       1.35646830      -1.35816831       0.00000000
Si       1.36018242      -1.36083402       1.36046303       0.00000000
Si      -2.69897607      -0.00622278       2.72486477       0.00000000
Si      -0.00742824       2.69733078       2.72791299       0.00000000
Si      -2.71301805       2.71249677      -0.00020550       0.00000000
Si      -2.71173114      -2.71634121      -0.00099324       0.00000000
Si      -2.71349046      -0.00109143      -2.71565163       0.00000000
Si       2.71147050       0.02968038       2.71822035       0.00000000
