10
Lattice="16.28999089631971 0.0 0.0 0.0 16.28999089631971 0.0 0.0 0.0 34.24959146834617" Properties=species:S:1:pos:R:3:initial_magmoms:R:1 pbc="T T T"
Si       1.21771008       2.02742082      -0.11905165       0.00000000
Si      -2.34988137       0.39498363      -0.14761582       0.00000000
Si       1.28427102      -1.68477696       1.15092391       0.00000000
Si       0.15407082      -0.74593539      -2.30332056       0.00000000
Si      -2.81298978      -1.87580979      -0.54871301       0.00000000
Si      -1.62957015      -2.89676925       1.19438667       0.00000000
Si      -0.31809483       1.27060371      -3.37207966       0.00000000
Si       3.42816534       1.20632337      -0.10559155       0.00000000
Si       3.46037067      -1.07414631       0.59796395       0.00000000
Si      -2.50403364       1.55289312      -2.33746742       0.00000000
