10
Lattice="16.28999089631971 0.0 0.0 0.0 16.28999089631971 0.0 0.0 0.0 34.24959146834617" Properties=species:S:1:pos:R:3:initial_magmoms:R:1 pbc="T T T"
Si      -0.42375177       0.08376318      -2.31599292       0.00000000
Si       0.30792987      -2.29405554       0.55645342       0.00000000
Si      -2.32472961       0.43992774       0.69170514       0.00000000
Si       1.59064929       1.88356383       0.71711835       0.00000000
Si       1.75216447      -1.70489511       2.30102584       0.00000000
Si       0.98157024       0.11171682       3.59298965       0.00000000
Si      -2.79689526       2.45646684      -0.37705396       0.00000000
Si      -2.16010287       1.78926102      -2.51570240       0.00000000
Si       0.94936491       2.39218650       2.88943415       0.00000000
Si       3.66644636       0.47399013      -1.23528071       0.00000000
