10
Lattice="16.28999089631971 0.0 0.0 0.0 16.28999089631971 0.0 0.0 0.0 34.24959146834617" Properties=species:S:1:pos:R:3:initial_magmoms:R:1 pbc="T T T"
Si       1.27392687      -1.83886407       0.75177895       0.00000000
Si      -1.62228852      -0.52988112       1.69727370       0.00000000
Si      -0.46183779      -0.62191962      -2.28338729       0.00000000
Si       0.28528677       2.38422069       0.65406481       0.00000000
Si      -2.64930134       0.09526392      -2.34596133       0.00000000
Si      -2.78564539       1.43917263       1.65737291       0.00000000
Si       0.00597843      -3.63654702      -0.04695622       0.00000000
Si       2.26870830       2.14039197       1.89890116       0.00000000
Si       1.36396170      -1.70090406       3.15935533       0.00000000
Si      -3.58030484       1.27097838      -0.55039124       0.00000000
