10
Lattice="16.28999089631971 0.0 0.0 0.0 16.28999089631971 0.0 0.0 0.0 34.24959146834617" Properties=species:S:1:pos:R:3:initial_magmoms:R:1 pbc="T T T"
Si       1.35710361      -1.35682879      -1.35724357       0.00000000
Si      -1.35959109      -1.35624235       1.35662708       0.00000000
Si       1.35755973       1.35739213       1.35830531       0.00000000
Si      -1.35807938       1.35804862      -1.35724357       0.00000000
Si      -2.71229219      -0.00446287       2.71486388       0.00000000
Si       2.71347417       0.00094666      -2.71373365       0.00000000
Si       2.71471221      -2.71381837       0.00065074       0.00000000
Si      -2.71506954      -2.71442110       0.00006850       0.00000000
Si       0.00048870       2.71603677      -2.71366515       0.00000000
Si       2.71500543       2.71497792       0.00037675       0.00000000
