10
Lattice="16.28999089631971 0.0 0.0 0.0 16.28999089631971 0.0 0.0 0.0 34.24959146834617" Properties=species:S:1:pos:R:3:initial_magmoms:R:1 pbc="T T T"
Si       0.11329695       2.30029461      -0.43938825       0.00000000
Si       1.65113811      -0.36880560       1.64641303       0.00000000
Si       0.63837252      -0.88528005      -2.12888730       0.00000000
Si      -2.10474782      -0.79778646       0.82589511       0.00000000
Si       0.04836501      -2.20292928       2.82100343       0.00000000
Si      -0.76134573       3.16177497       1.56510446       0.00000000
Si       3.63765474      -0.51810345       0.22293072       0.00000000
Si      -1.74862561      -3.08387130       1.05745673       0.00000000
Si      -3.71961692      -0.44481474      -0.79024127       0.00000000
Si      -0.97529859      -0.21522348      -3.71488401       0.00000000
