10
Lattice="16.28999089631971 0.0 0.0 0.0 16.28999089631971 0.0 0.0 0.0 34.24959146834617" Properties=species:S:1:pos:R:3:initial_magmoms:R:1 pbc="T T T"
Si      -1.34747689      -1.34325711      -1.37974556       0.00000000
Si      -1.34674384       1.38735414       1.37813583       0.00000000
Si       1.27370533      -1.43788572       1.40015833       0.00000000
Si       1.37041906       1.37285604      -1.37412863       0.00000000
Si       2.57081287      -0.08677683       2.78007514       0.00000000
Si      -2.70831091      -2.67191838      -0.01729605       0.00000000
Si      -2.68130209       2.72438847      -0.03476335       0.00000000
Si       2.72423209      -2.69177589      -0.01277510       0.00000000
Si       0.13313165       2.87085186       2.54238285       0.00000000
Si       0.01116680      -2.70234810      -2.73606439       0.00000000
