10
Lattice="16.28999089631971 0.0 0.0 0.0 16.28999089631971 0.0 0.0 0.0 34.24959146834617" Properties=species:S:1:pos:R:3:initial_magmoms:R:1 pbc="T T T"
Si       0.54824972      -0.96975999       2.08508204       0.00000000
Si       1.43484275       0.12085551      -1.87533743       0.00000000
Si      -1.40149779       1.67001822       0.99930089       0.00000000
Si      -0.19598809      -2.62409094      -0.53836963       0.00000000
Si      -1.93080876      -1.63463634      -1.84074532       0.00000000
Si      -0.27522348      -0.71162865      -3.25539124       0.00000000
Si      -0.78156555      -2.86790337       1.69268426       0.00000000
Si       0.04273682       2.25917865       2.74387330       0.00000000
Si      -3.18026805       0.36344619       1.91263525       0.00000000
Si       2.73571328      -1.68694353       2.14765608       0.00000000
