10
Lattice="16.28999089631971 0.0 0.0 0.0 16.28999089631971 0.0 0.0 0.0 34.24959146834617" Properties=species:S:1:pos:R:3:initial_magmoms:R:1 pbc="T T T"
Si      -1.35701050       1.35746688       1.35734632       0.00000000
Si      -1.35875806      -1.35713387      -1.35659283       0.00000000
Si       1.35856808       1.35798816      -1.35642158       0.00000000
Si       1.35807938      -1.35804862       1.35724357       0.00000000
Si      -2.71423233       0.00128691      -2.71342540       0.00000000
Si      -0.00151171      -2.71429097       2.71387065       0.00000000
Si      -2.71354815       0.00034209       2.71541188       0.00000000
Si      -2.71447668       2.71458678       0.00020550       0.00000000
Si       0.00037630       2.71281117      -2.71643937       0.00000000
Si      -2.71509570      -2.71495886       0.00030825       0.00000000
