10
Lattice="16.28999089631971 0.0 0.0 0.0 16.28999089631971 0.0 0.0 0.0 34.24959146834617" Properties=species:S:1:pos:R:3:initial_magmoms:R:1 pbc="T T T"
Si      -1.12428693       1.51135136       1.36220976       0.00000000
Si      -1.37639097      -1.33858188      -1.36128502       0.00000000
Si       1.34069958       1.36991591      -1.36683346       0.00000000
Si       1.40162418      -1.38165264       1.60055280       0.00000000
Si       2.21574951       0.50072202       2.82641487       0.00000000
Si      -2.61367837       0.15941394       2.55522645       0.00000000
Si       0.59188086       2.39941341       2.86398669       0.00000000
Si       2.70102861      -2.69635338       0.01469308       0.00000000
Si       2.69547372       0.01819593      -2.72373453       0.00000000
Si      -0.01918962      -2.69905752      -2.72370028       0.00000000
