10
Lattice="16.28999089631971 0.0 0.0 0.0 16.28999089631971 0.0 0.0 0.0 34.24959146834617" Properties=species:S:1:pos:R:3:initial_magmoms:R:1 pbc="T T T"
Si      -0.64128438       0.50862267       2.17231580       0.00000000
Si       2.26624346      -0.58660290       0.17994745       0.00000000
Si       0.14572040       1.72695097      -1.70525386       0.00000000
Si      -1.59064929      -1.88356383      -0.71711835       0.00000000
Si       2.07579707      -1.40957370      -1.95239905       0.00000000
Si      -0.60907905      -1.77184701       2.87587130       0.00000000
Si       1.33981813       0.36004158      -3.14096329       0.00000000
Si       0.99028034       2.21033376       2.55656218       0.00000000
Si      -2.91435840       2.19218344      -0.28070981       0.00000000
Si       2.31711713      -2.83876056       0.79668019       0.00000000
