10
Lattice="10.86 0.0 0.0 0.0 10.86 0.0 0.0 0.0 10.86" Properties=species:S:1:pos:R:3:initial_magmoms:R:1 pbc="T T T"
Si       1.36717626      -1.18780164      -1.26220350       0.00000000
Si      -1.34782374       1.52719836      -1.26220350       0.00000000
Si      -1.39080762      -1.04114820       1.78048614       0.00000000
Si       1.36717626       1.52719836       1.45279650       0.00000000
Si      -2.48158602      -2.45318712       0.05700414       0.00000000
Si       0.00967626      -2.54530164      -2.61970350       0.00000000
Si       2.72467626      -2.54530164       0.09529650       0.00000000
Si      -2.70532374       0.16969836      -2.61970350       0.00000000
Si       2.72467626       0.16969836      -2.61970350       0.00000000
Si       0.02069916      -2.56273194       2.89833852       0.00000000
