10
Lattice="10.86 0.0 0.0 0.0 10.86 0.0 0.0 0.0 10.86" Properties=species:S:1:pos:R:3:initial_magmoms:R:1 pbc="T T T"
Si      -1.14077784       1.15550400      -1.54115346       0.00000000
Si       1.57422216       1.15550400       1.17384654       0.00000000
Si       1.57422216      -1.55949600      -1.54115346       0.00000000
Si       0.26957778      -2.60544432       2.32142274       0.00000000
Si      -2.49827784       2.51300400      -0.18365346       0.00000000
Si       0.21672216       2.51300400       2.53134654       0.00000000
Si      -2.33512806      -0.10533114      -2.82977934       0.00000000
Si      -2.58407184      -0.04595952       2.78461260       0.00000000
Si       0.21672216       2.51300400      -2.89865346       0.00000000
Si       2.93172216       2.51300400      -0.18365346       0.00000000
