10
Lattice="16.28999089631971 0.0 0.0 0.0 16.28999089631971 0.0 0.0 0.0 34.395419527814205" Properties=species:S:1:pos:R:3:initial_magmoms:R:1 pbc="T T T"
Si       1.38595483      -1.47608577      -1.16772515       0.00000000
Si      -2.00900239       0.22071321      -1.19403766       0.00000000
Si       0.30797385      -0.87276933       2.15862334       0.00000000
Si       0.78742765       2.28527523       0.11168199       0.00000000
Si      -0.58754283       0.87120549       3.37395177       0.00000000
Si       2.61819559      -1.29850848       2.00057630       0.00000000
Si       3.45504547      -1.05645537      -0.22852330       0.00000000
Si      -1.24039132      -0.07851780      -3.41918178       0.00000000
Si       0.07627630       2.85804792       2.28213736       0.00000000
Si       1.00468738      -0.89285490      -3.42348121       0.00000000
