10
Lattice="16.28999089631971 0.0 0.0 0.0 16.28999089631971 0.0 0.0 0.0 34.395419527814205" Properties=species:S:1:pos:R:3:initial_magmoms:R:1 pbc="T T T"
Si      -0.71115135       0.57277269       2.17045537       0.00000000
Si      -1.43109931       1.49149611      -1.16531746       0.00000000
Si       2.34646047       0.35518716      -0.25139626       0.00000000
Si      -0.78742765      -2.28527523      -0.11168199       0.00000000
Si      -3.38339132       0.15973974      -1.35397645       0.00000000
Si      -2.79643004      -2.06456202      -1.30571965       0.00000000
Si      -0.47945380      -3.15804456       2.04694135       0.00000000
Si      -1.37497048      -1.41406974       3.26226978       0.00000000
Si      -0.40723045       2.33345032      -3.05634429       0.00000000
Si      -2.88646487       1.43270550       2.15865774       0.00000000
