10
Lattice="16.28999089631971 0.0 0.0 0.0 16.28999089631971 0.0 0.0 0.0 34.395419527814205" Properties=species:S:1:pos:R:3:initial_magmoms:R:1 pbc="T T T"
Si      -2.28002985       0.45804222       0.19350874       0.00000000
Si       0.86631849      -0.34166646      -2.14706647       0.00000000
Si      -0.10562436      -2.43141282       0.21418040       0.00000000
Si       1.45125981       2.03789529       0.45701219       0.00000000
Si      -2.00564109       1.07952201       2.67828133       0.00000000
Si       0.76481550       3.14564787      -1.61431552       0.00000000
Si       1.36260963      -2.57355936       2.25090630       0.00000000
Si      -2.54293579       2.72189610       0.29143255       0.00000000
Si      -0.31472280      -1.96589349      -3.27458335       0.00000000
Si       3.69457200       1.16214489       0.30061613       0.00000000
