10
Lattice="16.28999089631971 0.0 0.0 0.0 16.28999089631971 0.0 0.0 0.0 34.395419527814205" Properties=species:S:1:pos:R:3:initial_magmoms:R:1 pbc="T T T"
Si       1.35622395       1.35736425      -1.35617775       0.00000000
Si       1.35684297      -1.35725812       1.35724401       0.00000000
Si      -1.35837423      -1.35575828      -1.35755357       0.00000000
Si      -1.35767376       1.35708732       1.35717522       0.00000000
Si      -2.71464705       0.00033232       2.71383451       0.00000000
Si       2.71448415       0.00021992       2.71462561       0.00000000
Si       0.00096111       2.71502172      -2.71421286       0.00000000
Si       2.71461447       2.71494027      -0.00017198       0.00000000
Si      -2.71502172      -2.71458908      -0.00017198       0.00000000
Si      -0.00034209      -2.71473569       2.71493517       0.00000000
