10
Lattice="16.28999089631971 0.0 0.0 0.0 16.28999089631971 0.0 0.0 0.0 34.395419527814205" Properties=species:S:1:pos:R:3:initial_magmoms:R:1 pbc="T T T"
Si       1.96230969       0.25426246      -1.21326471       0.00000000
Si      -1.67585004       1.03505683      -1.29388761       0.00000000
Si      -0.65886534      -2.22462823       0.52642219       0.00000000
Si       0.57736647       1.43645872       1.89501670       0.00000000
Si       3.35872107      -1.12562338       0.20021585       0.00000000
Si       0.43420995      -2.56924318       2.58698413       0.00000000
Si      -1.43231454       2.63910055       2.18689639       0.00000000
Si       2.69798238       2.46484642      -0.72811704       0.00000000
Si      -2.85487137       2.39641213       0.24176554       0.00000000
Si      -3.00532581      -2.57981539       0.77781845       0.00000000
