10
Lattice="16.28999089631971 0.0 0.0 0.0 16.28999089631971 0.0 0.0 0.0 34.395419527814205" Properties=species:S:1:pos:R:3:initial_magmoms:R:1 pbc="T T T"
Si       0.01143558       1.20008430       2.02785188       0.00000000
Si      -1.86873993      -1.21233601      -0.82717591       0.00000000
Si       0.00568521       1.87364322      -1.55766623       0.00000000
Si       1.64594160      -1.78140272       0.37212425       0.00000000
Si      -1.79668926      -2.59603046       1.14526492       0.00000000
Si       1.75848921       2.77456167       1.65018996       0.00000000
Si      -2.15099676       2.21195394       2.18892572       0.00000000
Si       0.25412400      -3.63891626       1.00537867       0.00000000
Si      -2.06248993      -1.27767520       3.05070344       0.00000000
Si      -1.59122349      -1.64993428      -3.17339197       0.00000000
