10
Lattice="16.28999089631971 0.0 0.0 0.0 16.28999089631971 0.0 0.0 0.0 34.395419527814205" Properties=species:S:1:pos:R:3:initial_magmoms:R:1 pbc="T T T"
Si       1.34535852       1.35610992      -1.36942000       0.00000000
Si      -1.31859405       1.39211082       1.38400366       0.00000000
Si      -1.37080350      -1.35824391      -1.36804418       0.00000000
Si       1.48515930      -1.35340578       1.36618683       0.00000000
Si      -2.36762118      -0.05569551       2.86104699       0.00000000
Si       2.70156618       2.70632286       0.01943342       0.00000000
Si       2.70751203      -2.71435383      -0.03718147       0.00000000
Si       2.70275535       0.00076563      -2.73051630       0.00000000
Si      -0.01275507      -2.71443528      -2.72955323       0.00000000
Si      -0.01244556       2.71544526      -2.72917488       0.00000000
