10
Lattice="16.28999089631971 0.0 0.0 0.0 16.28999089631971 0.0 0.0 0.0 34.395419527814205" Properties=species:S:1:pos:R:3:initial_magmoms:R:1 pbc="T T T"
Si      -1.11773835      -0.33945102      -2.03576283       0.00000000
Si       1.38846186      -1.78359210       0.98897205       0.00000000
Si       2.15190900       1.11998637      -0.51610356       0.00000000
Si      -1.68671547       0.10682982       1.82061936       0.00000000
Si      -1.19073384       2.17036557      -0.59768954       0.00000000
Si       2.33769645      -2.22567012      -1.20273970       0.00000000
Si      -2.86821288       1.95582627       0.97418201       0.00000000
Si       2.67626781      -0.20821878      -2.43729519       0.00000000
Si       3.21826869       1.06492617       1.63760123       0.00000000
Si      -3.43951947      -0.79408863      -1.38723684       0.00000000
