10
Lattice="16.28999089631971 0.0 0.0 0.0 16.28999089631971 0.0 0.0 0.0 34.395419527814205" Properties=species:S:1:pos:R:3:initial_magmoms:R:1 pbc="T T T"
Si       1.74832425       1.57027455       0.48724579       0.00000000
Si      -2.11225914       0.76916493      -0.89397185       0.00000000
Si      -0.60139422      -0.71993655       2.25572166       0.00000000
Si       1.25517708      -1.11381246      -1.78615513       0.00000000
Si       1.66192209      -0.72438372       3.17607481       0.00000000
Si       2.08166652      -2.57186520       1.59457254       0.00000000
Si       0.94840380       3.57313005      -0.38319958       0.00000000
Si       2.28864726      -2.95324668      -0.75941689       0.00000000
Si      -1.66501719       1.85787450      -2.95965871       0.00000000
Si       2.49124599       1.49014404       2.69048001       0.00000000
