10
Lattice="16.28999089631971 0.0 0.0 0.0 16.28999089631971 0.0 0.0 0.0 34.395419527814205" Properties=species:S:1:pos:R:3:initial_magmoms:R:1 pbc="T T T"
Si      -0.04000824      -0.27515439       2.35987105       0.00000000
Si       0.82932390       2.21452776      -0.48559480       0.00000000
Si      -2.26331631       0.00444717      -0.92035315       0.00000000
Si       0.41974443      -1.84748148      -1.58150227       0.00000000
Si       0.08640216       2.29465827      -2.68882903       0.00000000
Si      -1.37438730      -2.14695684       2.61938464       0.00000000
Si      -1.66192209       0.72438372      -3.17607481       0.00000000
Si      -0.38478609       3.62045250       0.92004359       0.00000000
Si       2.28908709      -2.94987465      -0.68292144       0.00000000
Si      -1.49389074      -3.25725066      -1.31235797       0.00000000
