10
Lattice="16.28999089631971 0.0 0.0 0.0 16.28999089631971 0.0 0.0 0.0 34.395419527814205" Properties=species:S:1:pos:R:3:initial_magmoms:R:1 pbc="T T T"
Si       1.34298018       1.35485559      -1.39380636       0.00000000
Si      -1.37067318      -1.35953082      -1.39566372       0.00000000
Si      -1.28313072       1.42649901       1.46493613       0.00000000
Si       1.46979783      -1.40364414       1.60103888       0.00000000
Si       2.69951364      -2.72331333      -0.00815172       0.00000000
Si       2.70747945       2.71554300       0.00130703       0.00000000
Si      -2.72616408       2.71352304      -0.01186643       0.00000000
Si      -2.73168639      -2.71117728      -0.03391390       0.00000000
Si      -2.78233200       0.05406651       2.66248212       0.00000000
Si       2.70084942       0.00140094      -2.75672562       0.00000000
