10
Lattice="16.28999089631971 0.0 0.0 0.0 16.28999089631971 0.0 0.0 0.0 34.395419527814205" Properties=species:S:1:pos:R:3:initial_magmoms:R:1 pbc="T T T"
Si      -1.04902713      -1.44780633       1.47704333       0.00000000
Si       1.31859405      -1.39211082      -1.38400366       0.00000000
Si      -1.41103980       1.32634809      -1.39033243       0.00000000
Si       1.40019066       1.21437063       1.87544569       0.00000000
Si      -2.27313918       0.34627653       2.60861887       0.00000000
Si       0.88337412      -2.55948480       2.62626373       0.00000000
Si      -0.70200126       2.42172027       2.82238652       0.00000000
Si       2.66395257      -0.03600090      -2.75342366       0.00000000
Si      -0.05002659       2.67799455      -2.75208224       0.00000000
Si       2.79044442       2.63388123       0.24462036       0.00000000
