10
Lattice="16.28999089631971 0.0 0.0 0.0 16.28999089631971 0.0 0.0 0.0 34.395419527814205" Properties=species:S:1:pos:R:3:initial_magmoms:R:1 pbc="T T T"
Si      -2.13563529       0.52794261      -0.86807208       0.00000000
Si       0.99455337      -2.13283341       0.27887822       0.00000000
Si      -0.55091151       0.58051044       2.30397846       0.00000000
Si       1.43581689       1.03907394      -1.71192978       0.00000000
Si       1.56727719       1.39690008       2.71435044       0.00000000
Si      -1.46355876      -0.20121408      -3.11306237       0.00000000
Si       1.44757827       3.25544247      -0.80939346       0.00000000
Si       1.32831918      -2.33779419       2.59606453       0.00000000
Si      -0.54257103      -1.35935163       3.63236470       0.00000000
Si      -2.75934681       2.80174968      -0.21782631       0.00000000
