10
Lattice="16.28999089631971 0.0 0.0 0.0 16.28999089631971 0.0 0.0 0.0 34.395419527814205" Properties=species:S:1:pos:R:3:initial_magmoms:R:1 pbc="T T T"
Si       2.13563529      -0.52794261       0.86807208       0.00000000
Si      -1.75200579      -1.48282983       0.71274228       0.00000000
Si      -0.62371152       2.27380707       0.65024577       0.00000000
Si       0.67207653      -0.72915669      -2.24499029       0.00000000
Si      -3.52984752      -0.09715356      -0.00144461       0.00000000
Si       1.58472378       0.05256783       3.17205055       0.00000000
Si       3.57145218       0.51113133      -0.84385769       0.00000000
Si      -0.89906139      -2.80460043      -2.45875794       0.00000000
Si      -3.12754968       2.15568828       0.71343019       0.00000000
Si      -0.08760762       0.94071492      -3.76131320       0.00000000
