10
Lattice="16.28999089631971 0.0 0.0 0.0 16.28999089631971 0.0 0.0 0.0 34.395419527814205" Properties=species:S:1:pos:R:3:initial_magmoms:R:1 pbc="T T T"
Si       0.01176138       2.21636853       0.90253631       0.00000000
Si      -1.43581689      -1.03907394       1.71192978       0.00000000
Si       2.44306017      -0.53921529      -0.12258534       0.00000000
Si      -2.89937565      -1.24028802      -1.40113259       0.00000000
Si      -0.79718373      -2.44763766      -2.34807342       0.00000000
Si       2.58989823      -0.35129385      -2.56060283       0.00000000
Si       0.99660591       3.42531459      -0.97662409       0.00000000
Si      -3.57145218      -0.51113133       0.84385769       0.00000000
Si       1.18483686       1.87869312       2.99618667       0.00000000
Si      -0.44126352      -3.17190735       1.99080799       0.00000000
