10
Lattice="16.28999089631971 0.0 0.0 0.0 16.28999089631971 0.0 0.0 0.0 34.395419527814205" Properties=species:S:1:pos:R:3:initial_magmoms:R:1 pbc="T T T"
Si      -1.38772881      -1.14473088       1.62497952       0.00000000
Si      -1.46823399       0.14214654      -2.03672591       0.00000000
Si       1.35545832       1.57695345       1.50607793       0.00000000
Si       2.14467624      -1.20386358      -1.75089981       0.00000000
Si      -1.36260963       2.57355936      -2.25090630       0.00000000
Si       2.53760733       1.30810329      -2.34962121       0.00000000
Si       0.01159848      -2.35732590       3.10997508       0.00000000
Si      -2.36745828      -3.11052663       0.42713825       0.00000000
Si       2.94471072      -2.65497678       0.25741546       0.00000000
Si       3.08213316       2.71730232       0.27120803       0.00000000
