10
Lattice="16.28999089631971 0.0 0.0 0.0 16.28999089631971 0.0 0.0 0.0 34.395419527814205" Properties=species:S:1:pos:R:3:initial_magmoms:R:1 pbc="T T T"
Si      -0.96097968      -0.00070047      -2.31388435       0.00000000
Si       2.27791215      -0.77196681      -0.87017020       0.00000000
Si       0.80003448      -1.45111320       2.00831527       0.00000000
Si       0.39293109       2.51196687      -0.59872140       0.00000000
Si      -2.14467624       1.20386358       1.75089981       0.00000000
Si      -0.57774114       2.31384789      -2.69873492       0.00000000
Si       3.52139301       0.96172902       0.14542392       0.00000000
Si      -3.61291023       1.34601012      -0.28582610       0.00000000
Si       1.85640840       0.15213231       3.40714479       0.00000000
Si       2.64525165       2.58481575      -1.23978359       0.00000000
