10
Lattice="16.28999089631971 0.0 0.0 0.0 16.28999089631971 0.0 0.0 0.0 34.395419527814205" Properties=species:S:1:pos:R:3:initial_magmoms:R:1 pbc="T T T"
Si      -1.35718506       1.35762489      -1.35731280       0.00000000
Si       1.35749457       1.35747828       1.35779434       0.00000000
Si      -1.35751086      -1.35804843       1.35724401       0.00000000
Si       1.35778779      -1.35814617      -1.35741599       0.00000000
Si       2.71448415      -0.00182448      -2.71362814       0.00000000
Si      -2.71479366       2.71479556       0.00000000       0.00000000
Si       2.71467963       2.71495584       0.00010319       0.00000000
Si      -2.71450044      -2.71555929       0.00000000       0.00000000
Si      -2.71598283      -0.00066789      -2.71448803       0.00000000
Si      -0.00179190       2.71580364       2.71521033       0.00000000
