10
Lattice="16.28999089631971 0.0 0.0 0.0 16.28999089631971 0.0 0.0 0.0 34.395419527814205" Properties=species:S:1:pos:R:3:initial_magmoms:R:1 pbc="T T T"
Si       1.09307529      -0.34461495       2.06056194       0.00000000
Si       0.92159046      -1.72944414      -1.32594416       0.00000000
Si       0.65886534       2.22462823      -0.52642219       0.00000000
Si      -2.34646047      -0.35518716       0.25139626       0.00000000
Si       0.32115735      -3.69691776      -0.08880902       0.00000000
Si       3.42653634      -0.33559029       1.54576541       0.00000000
Si      -1.01698470       3.25968506      -1.82030980       0.00000000
Si      -3.05761182       0.21758553       2.42185163       0.00000000
Si       2.62117503       2.47889070      -1.73968690       0.00000000
Si       0.56384577       1.17257049       3.80055840       0.00000000
