10
Lattice="16.28999089631971 0.0 0.0 0.0 16.28999089631971 0.0 0.0 0.0 34.395419527814205" Properties=species:S:1:pos:R:3:initial_magmoms:R:1 pbc="T T T"
Si      -0.42772653      -1.97012889       1.20724550       0.00000000
Si      -1.09307529       0.34461495      -2.06056194       0.00000000
Si      -0.52922952       1.51718544       1.73999646       0.00000000
Si       2.33346105       0.00902466      -0.51479653       0.00000000
Si      -0.17148483      -1.38482919      -3.38650611       0.00000000
Si      -0.43420995       2.56924318      -2.58698413       0.00000000
Si       1.63549971      -3.09203748       1.15558356       0.00000000
Si       3.31439598       0.87661377       1.47411971       0.00000000
Si       0.15721479       0.40943286       3.81132417       0.00000000
Si       0.73599849       3.47508773       1.55009924       0.00000000
