10
Lattice="16.28999089631971 0.0 0.0 0.0 16.28999089631971 0.0 0.0 0.0 34.395419527814205" Properties=species:S:1:pos:R:3:initial_magmoms:R:1 pbc="T T T"
Si       1.40271561      -1.26215925       1.36846381       0.00000000
Si       1.07779527       1.70896435      -1.20902169       0.00000000
Si      -1.33861446       1.46616190       1.34339641       0.00000000
Si      -0.72536112      -1.66681953      -1.64487041       0.00000000
Si      -0.53613648       0.14285678      -3.40746466       0.00000000
Si      -2.58427818      -2.58521715      -0.18754113       0.00000000
Si       0.02593368      -2.61203049       2.72752734       0.00000000
Si       2.66405031      -2.73282084      -0.02147651       0.00000000
Si      -2.69048898       0.10859891       2.72312472       0.00000000
Si       2.74400163       0.10040667       2.72677064       0.00000000
