10
Lattice="16.28999089631971 0.0 0.0 0.0 16.28999089631971 0.0 0.0 0.0 34.395419527814205" Properties=species:S:1:pos:R:3:initial_magmoms:R:1 pbc="T T T"
Si       0.66585375       1.10875116       1.97570840       0.00000000
Si       0.24666318       0.78568788      -2.21888415       0.00000000
Si      -0.00804726      -2.37332498      -0.25136187       0.00000000
Si      -2.23576992       0.87192714      -0.04536758       0.00000000
Si       1.00442511       3.12620250       0.74115291       0.00000000
Si      -3.30195042      -1.21476745      -0.53894213       0.00000000
Si      -1.61205840       2.41718025      -2.16281958       0.00000000
Si       2.75740830       0.19276446       2.35533085       0.00000000
Si      -1.80374283      -2.46792101      -1.97790971       0.00000000
Si       2.45071647      -2.73255206      -0.17751486       0.00000000
