10
Lattice="16.28999089631971 0.0 0.0 0.0 16.28999089631971 0.0 0.0 0.0 34.395419527814205" Properties=species:S:1:pos:R:3:initial_magmoms:R:1 pbc="T T T"
Si      -2.09155455       0.91598670      -0.37962246       0.00000000
Si      -0.55172601      -1.16789526       1.97704982       0.00000000
Si       0.85232538      -0.95513483      -1.99249337       0.00000000
Si       1.48739103       1.46751723       1.13958968       0.00000000
Si       0.61027227       2.50621650      -1.94863919       0.00000000
Si      -2.75740830      -0.19276446      -2.35533085       0.00000000
Si       3.34246365       0.02489275       1.66821317       0.00000000
Si      -0.47695491       0.44639487       3.68767257       0.00000000
Si      -1.75298319       2.93343804      -1.61417794       0.00000000
Si      -3.04078914       1.35806472       1.81208930       0.00000000
