10
Lattice="16.28999089631971 0.0 0.0 0.0 16.28999089631971 0.0 0.0 0.0 34.395419527814205" Properties=species:S:1:pos:R:3:initial_magmoms:R:1 pbc="T T T"
Si      -0.82850940      -1.99027962       0.75817866       0.00000000
Si       1.13583654      -0.96915726      -1.78990424       0.00000000
Si       1.37487600       0.24632109       1.91269595       0.00000000
Si      -1.56253680       1.76990850      -0.46877543       0.00000000
Si      -1.92725361      -1.09297755       2.60934117       0.00000000
Si      -0.38670831       0.49759434       3.50097413       0.00000000
Si      -0.01905930       3.57949944      -0.25851612       0.00000000
Si       1.00445769      -2.86008906       2.00346552       0.00000000
Si       1.79396883       0.90184698      -3.04894927       0.00000000
Si       2.57434128       2.15327736       1.56337588       0.00000000
