10
Lattice="16.28999089631971 0.0 0.0 0.0 16.28999089631971 0.0 0.0 0.0 34.395419527814205" Properties=species:S:1:pos:R:3:initial_magmoms:R:1 pbc="T T T"
Si       1.35729909       1.35635427      -1.35782874       0.00000000
Si       1.35725022      -1.35687555       1.35745039       0.00000000
Si      -1.35689184       1.35747828       1.35741599       0.00000000
Si      -1.35839052      -1.35757602      -1.35600578       0.00000000
Si      -2.71365336       0.00008145      -2.71404089       0.00000000
Si      -2.71432125       0.00040725       2.71452242       0.00000000
Si       0.00118917       2.71560816       2.71355935       0.00000000
Si      -0.00013032      -2.71472035       2.71479759       0.00000000
Si      -2.71461447      -2.71494027       0.00017198       0.00000000
Si      -2.71467963       2.71490769       0.00000000       0.00000000
