10
Lattice="16.28999089631971 0.0 0.0 0.0 16.28999089631971 0.0 0.0 0.0 34.395419527814205" Properties=species:S:1:pos:R:3:initial_magmoms:R:1 pbc="T T T"
Si       2.00968101      -1.20264183      -0.29187969       0.00000000
Si       1.24025544       2.05905600       0.10012512       0.00000000
Si      -1.42255683      -0.24268842      -1.94513085       0.00000000
Si      -1.12449870      -0.85270005       1.96910447       0.00000000
Si       2.60252298      -1.73325600       1.95018698       0.00000000
Si       1.43231454      -2.63910055      -2.18689639       0.00000000
Si      -0.21712941       3.50402787       1.30162659       0.00000000
Si      -0.24353550      -1.60404372      -3.48078401       0.00000000
Si       3.92331618       0.20712735      -0.56102400       0.00000000
Si       1.84164966       2.77899255      -2.15559654       0.00000000
