10
Lattice="16.28999089631971 0.0 0.0 0.0 16.28999089631971 0.0 0.0 0.0 34.395419527814205" Properties=species:S:1:pos:R:3:initial_magmoms:R:1 pbc="T T T"
Si       1.54347750       1.80959094       0.21025932       0.00000000
Si      -1.79476704       0.84530439       1.35191272       0.00000000
Si      -1.06635969       0.05506020      -2.15370479       0.00000000
Si       1.56253680      -1.76990850       0.46877543       0.00000000
Si      -1.82980683      -2.84851827      -0.64862918       0.00000000
Si       3.21722613       1.26530946      -1.44484920       0.00000000
Si      -3.21826869      -1.06492617      -1.63760123       0.00000000
Si      -2.65857687       2.71513575       0.21720720       0.00000000
Si       0.70265286       3.84766542      -0.57911600       0.00000000
Si      -1.05705810       2.07334233       3.23114191       0.00000000
