10
Lattice="16.28999089631971 0.0 0.0 0.0 16.28999089631971 0.0 0.0 0.0 34.395419527814205" Properties=species:S:1:pos:R:3:initial_magmoms:R:1 pbc="T T T"
Si       0.85586031       1.70730603       1.46640279       0.00000000
Si      -1.75864722      -0.87659422       1.50796280       0.00000000
Si       0.02612916       1.48512672      -2.16608715       0.00000000
Si       1.78375500      -1.97021360      -0.06139586       0.00000000
Si       2.20742532       0.40335669       2.89729432       0.00000000
Si       2.37345300       1.22381883      -2.56858257       0.00000000
Si      -0.51781023      -2.30939162       2.91831681       0.00000000
Si       1.72276524       3.41141922       0.11040936       0.00000000
Si      -1.72618777      -2.79874322      -2.16261321       0.00000000
Si       3.55881114      -1.03360050       1.36653564       0.00000000
