10
Lattice="16.28999089631971 0.0 0.0 0.0 16.28999089631971 0.0 0.0 0.0 34.395419527814205" Properties=species:S:1:pos:R:3:initial_magmoms:R:1 pbc="T T T"
Si       1.04544333       1.63160640      -1.33909839       0.00000000
Si      -1.25591013       1.46966751       1.37448989       0.00000000
Si       1.47191553      -1.26886068       1.36691257       0.00000000
Si      -1.85652243      -0.82727136      -1.32418586       0.00000000
Si       2.20452570      -0.14193477      -2.64113773       0.00000000
Si      -2.69355150      -2.65486275      -0.07853854       0.00000000
Si       0.10215459      -2.60576469       2.74788600       0.00000000
Si      -2.61138474       0.11300373       2.74633820       0.00000000
Si      -2.50778034       2.85053823      -0.16549709       0.00000000
Si       2.74054815       2.70293454       0.00056752       0.00000000
