10
Lattice="16.28999089631971 0.0 0.0 0.0 16.28999089631971 0.0 0.0 0.0 34.395419527814205" Properties=species:S:1:pos:R:3:initial_magmoms:R:1 pbc="T T T"
Si      -1.35555606       1.35744570      -1.35865423       0.00000000
Si      -1.35632169      -1.35858600       1.35693445       0.00000000
Si       1.35856971       1.35669636       1.35686566       0.00000000
Si       1.35881406      -1.35863487      -1.36281607       0.00000000
Si      -2.71350675       2.71287144      -0.00085989       0.00000000
Si      -2.71393029      -0.00084708       2.71476319       0.00000000
Si       0.00153126       2.71386513       2.71486638       0.00000000
Si       2.71614573      -0.00081450       2.71407528       0.00000000
Si       0.00146610      -2.71601541       2.71435044       0.00000000
Si       2.71634121       2.71453302       0.00006879       0.00000000
