10
Lattice="16.28999089631971 0.0 0.0 0.0 16.28999089631971 0.0 0.0 0.0 34.395419527814205" Properties=species:S:1:pos:R:3:initial_magmoms:R:1 pbc="T T T"
Si       1.22971581      -1.31966919      -1.60919060       0.00000000
Si       1.99682820       0.67683321       1.41829592       0.00000000
Si      -1.39025376      -1.41951060       1.63082533       0.00000000
Si      -1.46979783       1.40364414      -1.60103888       0.00000000
Si       2.72148885       2.56534920      -0.08144840       0.00000000
Si       2.72179836      -2.59724502      -0.13881999       0.00000000
Si      -2.79044442      -2.63388123      -0.24462036       0.00000000
Si      -2.75292855       2.83014315      -0.13610275       0.00000000
Si       2.58787827       0.04722471      -2.99787205       0.00000000
Si      -0.12649185      -2.66988213      -2.99804402       0.00000000
