10
Lattice="16.28999089631971 0.0 0.0 0.0 16.28999089631971 0.0 0.0 0.0 34.395419527814205" Properties=species:S:1:pos:R:3:initial_magmoms:R:1 pbc="T T T"
Si      -1.35669636      -1.35632169       1.35621215       0.00000000
Si       1.35887922      -1.35316143      -1.36133707       0.00000000
Si       1.35847197       1.35887922       1.35624655       0.00000000
Si      -1.35570267       1.35718506      -1.36467343       0.00000000
Si       0.00114030      -2.71365336       2.71424726       0.00000000
Si      -2.71448415       0.00182448       2.71362814       0.00000000
Si      -2.71389771      -2.71464705      -0.00147900       0.00000000
Si       2.71595025      -2.71298547      -0.00055033       0.00000000
Si       2.71640637       0.00094482       2.71397209       0.00000000
Si       0.00019548       2.71678032       2.71373133       0.00000000
