10
Lattice="16.28999089631971 0.0 0.0 0.0 16.28999089631971 0.0 0.0 0.0 34.395419527814205" Properties=species:S:1:pos:R:3:initial_magmoms:R:1 pbc="T T T"
Si      -1.23240366       1.16900298       1.57142441       0.00000000
Si      -1.36601424      -1.34912151      -1.34499924       0.00000000
Si       1.34830701       1.36593279      -1.34778527       0.00000000
Si       1.36308204      -1.27659843       1.42090997       0.00000000
Si       0.43205967       2.16762885       2.83648865       0.00000000
Si      -0.17927145      -2.30954733       2.81997884       0.00000000
Si      -1.95706431      -0.71951301       3.07116873       0.00000000
Si       2.70482418       0.00764001      -2.70575158       0.00000000
Si      -0.00793323      -2.70697446      -2.70564840       0.00000000
Si       2.70759348      -2.70980892       0.03442983       0.00000000
