10
Lattice="16.28999089631971 0.0 0.0 0.0 16.28999089631971 0.0 0.0 0.0 34.395419527814205" Properties=species:S:1:pos:R:3:initial_magmoms:R:1 pbc="T T T"
Si       1.35786924      -1.35345465      -1.36291926       0.00000000
Si      -1.35842310       1.36098063      -1.36274728       0.00000000
Si      -1.34298018      -1.35485559       1.39380636       0.00000000
Si       1.36449927       1.36068741       1.39511339       0.00000000
Si       2.71469592      -2.71127502      -0.00302680       0.00000000
Si      -2.71365336      -2.71438641      -0.00185735       0.00000000
Si       2.71365336       2.71596654       0.00044714       0.00000000
Si      -0.00029322      -2.71197549      -2.71992251       0.00000000
Si       2.71497285       0.00262269      -2.72019767       0.00000000
Si      -2.71591767       0.00350235      -2.72054162       0.00000000
