10
Lattice="16.28999089631971 0.0 0.0 0.0 16.28999089631971 0.0 0.0 0.0 34.395419527814205" Properties=species:S:1:pos:R:3:initial_magmoms:R:1 pbc="T T T"
Si       0.86540625      -1.30689783      -1.67763753       0.00000000
Si       1.71198126       1.37415991       0.69795224       0.00000000
Si      -1.39641138       1.37988585      -1.41348056       0.00000000
Si      -0.59105007      -1.43459514       1.87197175       0.00000000
Si      -0.77369355      -2.96888508      -1.63158203       0.00000000
Si      -3.35872107       1.12562338      -0.20021585       0.00000000
Si       1.58996916       3.02670548      -0.98415669       0.00000000
Si       2.85718455      -2.24857386      -0.83642828       0.00000000
Si      -0.66073869       3.59046980      -0.92833289       0.00000000
Si       1.00162323       2.86945811       2.32423738       0.00000000
