10
Lattice="16.28999089631971 0.0 0.0 0.0 16.28999089631971 0.0 0.0 0.0 34.395419527814205" Properties=species:S:1:pos:R:3:initial_magmoms:R:1 pbc="T T T"
Si       0.72536112       1.66681953       1.64487041       0.00000000
Si       0.18922464       1.80967632      -1.76259426       0.00000000
Si      -1.85891706      -0.91839762       1.45732928       0.00000000
Si       1.69430661      -2.13732945       0.28372797       0.00000000
Si      -0.12691539      -1.99417293      -2.57535848       0.00000000
Si       2.12807673       0.40466028       3.01333421       0.00000000
Si      -0.60704685      -2.29926834       2.99731626       0.00000000
Si       1.80315639       3.37578389       0.43584872       0.00000000
Si      -2.05330563       2.73483755      -1.85756007       0.00000000
Si       3.38941143      -1.06600131       1.62339389       0.00000000
