10
Lattice="16.28999089631971 0.0 0.0 0.0 16.28999089631971 0.0 0.0 0.0 34.395419527814205" Properties=species:S:1:pos:R:3:initial_magmoms:R:1 pbc="T T T"
Si      -1.34128602      -1.36256592      -1.35830683       0.00000000
Si       1.35487097      -1.35355703       1.35958290       0.00000000
Si      -1.35967743       1.36169902       1.35745039       0.00000000
Si       1.36218609       1.35840844      -1.36789284       0.00000000
Si       2.71132619      -2.70717550      -0.00237329       0.00000000
Si      -0.00241092      -2.71132945       2.71534791       0.00000000
Si       2.71290632       0.00390308       2.71534791       0.00000000
Si      -2.71806795      -2.71243717       0.00075670       0.00000000
Si      -2.71759554       0.00368480       2.71496956       0.00000000
Si      -0.00234576       2.71919359       2.71527912       0.00000000
