10
Lattice="16.28999089631971 0.0 0.0 0.0 16.28999089631971 0.0 0.0 0.0 34.395419527814205" Properties=species:S:1:pos:R:3:initial_magmoms:R:1 pbc="T T T"
Si      -1.60182828       1.67407443      -0.29745175       0.00000000
Si      -0.56498607      -1.32081926      -1.84782616       0.00000000
Si       2.33986302      -0.13919805      -0.13723780       0.00000000
Si      -0.51236937      -1.63247140       1.67161832       0.00000000
Si       2.42812224      -2.45290652       0.20279551       0.00000000
Si       0.81456516      -3.18286142      -1.34097497       0.00000000
Si      -2.89937565      -1.05726010      -1.83551259       0.00000000
Si      -3.60973368       0.43803810      -0.20922745       0.00000000
Si      -1.48084245       2.18585736      -2.62598856       0.00000000
Si       0.38551914       1.01499732       3.70961686       0.00000000
