10
Lattice="16.28999089631971 0.0 0.0 0.0 16.28999089631971 0.0 0.0 0.0 34.395419527814205" Properties=species:S:1:pos:R:3:initial_magmoms:R:1 pbc="T T T"
Si       1.35408996      -1.35573525      -1.35892939       0.00000000
Si       1.35700587       1.35770634       1.35710643       0.00000000
Si      -1.35790182      -1.35720135       1.35693445       0.00000000
Si      -1.35852084       1.35666378      -1.35910137       0.00000000
Si       2.71237419       2.71353933      -0.00065351       0.00000000
Si      -0.00008145      -2.71471221       2.71431605       0.00000000
Si       2.71471826      -0.00004887       2.71438484       0.00000000
Si      -2.71518462       0.00026064       2.71414407       0.00000000
Si      -0.00065160       2.71529865       2.71441924       0.00000000
Si      -2.71498914       2.71560816       0.00013758       0.00000000
