10
Lattice="16.28999089631971 0.0 0.0 0.0 16.28999089631971 0.0 0.0 0.0 34.395419527814205" Properties=species:S:1:pos:R:3:initial_magmoms:R:1 pbc="T T T"
Si       1.35707103       1.35645201      -1.35748478       0.00000000
Si      -1.35856971      -1.35812988      -1.35734720       0.00000000
Si      -1.36127385       1.35575154       1.35734720       0.00000000
Si       1.35624024      -1.35897696       1.36395112       0.00000000
Si      -2.70987408      -0.00076563       2.69209660       0.00000000
Si      -0.00074934       2.71396287      -2.71486638       0.00000000
Si      -2.71463076       2.71435383      -0.00123824       0.00000000
Si       2.71463076      -0.00104256      -2.71469440       0.00000000
Si       2.71474479       2.71521720       0.00000000       0.00000000
Si      -2.71581993      -0.00125433      -2.71479759       0.00000000
