10
Lattice="16.28999089631971 0.0 0.0 0.0 16.28999089631971 0.0 0.0 0.0 34.395419527814205" Properties=species:S:1:pos:R:3:initial_magmoms:R:1 pbc="T T T"
Si      -1.39176873       1.25732736      -1.53341745       0.00000000
Si      -1.83480786      -0.86325597       1.35015855       0.00000000
Si       1.32680421       1.44889776       1.49891883       0.00000000
Si       1.30696299      -1.47515724      -1.51597896       0.00000000
Si       2.66579334       2.55202398      -0.12041843       0.00000000
Si      -2.63205675       2.67397092      -0.05795631       0.00000000
Si      -2.76390801      -2.63710665      -0.08526629       0.00000000
Si      -0.05462037       2.60180622      -2.91896891       0.00000000
Si       2.69821746      -2.83090878       0.04106815       0.00000000
Si      -3.62700108       0.88594794       1.21587876       0.00000000
