10
Lattice="16.28999089631971 0.0 0.0 0.0 16.28999089631971 0.0 0.0 0.0 34.395419527814205" Properties=species:S:1:pos:R:3:initial_magmoms:R:1 pbc="T T T"
Si       1.88708247      -0.21843261       1.36952318       0.00000000
Si      -1.67374863       0.54428148       1.65510851       0.00000000
Si      -0.09679518       1.83508479      -1.57489835       0.00000000
Si       0.13927950      -2.13337098      -1.13532464       0.00000000
Si      -1.69575642      -0.70664391      -2.48441694       0.00000000
Si      -2.52754011       2.23707312      -1.48526384       0.00000000
Si       0.91965195      -0.88194060       3.47700051       0.00000000
Si      -2.51457327       2.58235596       0.86573319       0.00000000
Si      -3.21722613      -1.26530946       1.44484920       0.00000000
Si       3.41090350      -1.67632245       0.28510379       0.00000000
