10
Lattice="16.28999089631971 0.0 0.0 0.0 16.28999089631971 0.0 0.0 0.0 34.395419527814205" Properties=species:S:1:pos:R:3:initial_magmoms:R:1 pbc="T T T"
Si      -1.19946528      -1.90695627       0.34932008       0.00000000
Si       1.59931962       0.20219148       1.64489307       0.00000000
Si      -1.66348593       1.59497019       0.42767289       0.00000000
Si       0.96743052       0.66350799      -2.10747732       0.00000000
Si       1.82752623       2.47176315       0.96166207       0.00000000
Si      -2.59340058       1.42622208      -1.82189200       0.00000000
Si      -0.29431143       3.06157518       1.78099582       0.00000000
Si       1.72682145       2.79231777      -1.41777999       0.00000000
Si      -2.57434128      -2.15327736      -1.56337588       0.00000000
Si      -0.91965195       0.88194060      -3.47700051       0.00000000
