10
Lattice="16.28999089631971 0.0 0.0 0.0 16.28999089631971 0.0 0.0 0.0 34.395419527814205" Properties=species:S:1:pos:R:3:initial_magmoms:R:1 pbc="T T T"
Si       0.69718563      -2.23028019       0.05857543       0.00000000
Si      -2.18553156      -0.23526018       0.89792732       0.00000000
Si      -0.03041343       1.24914978      -2.03380229       0.00000000
Si       2.60999099       0.39770406       1.05504569       0.00000000
Si      -0.24392646       1.16276391       2.68975771       0.00000000
Si       1.96386768       2.47552614      -1.71392471       0.00000000
Si      -0.04509072      -2.69232975       2.38721543       0.00000000
Si      -0.43753311      -3.40842186      -1.59993823       0.00000000
Si      -1.74413772       2.93783634      -1.96903568       0.00000000
Si      -2.39187699      -2.25422649       2.24691643       0.00000000
