10
Lattice="16.28999089631971 0.0 0.0 0.0 16.28999089631971 0.0 0.0 0.0 34.395419527814205" Properties=species:S:1:pos:R:3:initial_magmoms:R:1 pbc="T T T"
Si      -1.73183877      -1.63608615       0.27798394       0.00000000
Si       1.77031153      -1.05420735      -1.36429508       0.00000000
Si      -1.25413452       1.85999220      -1.06735926       0.00000000
Si       0.90232658       0.65906082       2.35973347       0.00000000
Si       0.18751419      -3.00509775       1.28085174       0.00000000
Si      -1.27223271       0.21365964       3.22440041       0.00000000
Si      -2.07896238       2.08007010       1.99651764       0.00000000
Si      -2.37632004       0.35896644      -2.69354120       0.00000000
Si       0.32635386      -2.47997331      -2.66286047       0.00000000
Si      -1.01263527      -3.58309953      -1.04352322       0.00000000
