10
Lattice="16.28999089631971 0.0 0.0 0.0 16.28999089631971 0.0 0.0 0.0 34.395419527814205" Properties=species:S:1:pos:R:3:initial_magmoms:R:1 pbc="T T T"
Si      -1.36691019      -1.75172886      -0.76058634       0.00000000
Si      -0.67166928       0.31887675       2.29417576       0.00000000
Si      -1.05142176       1.79558154      -1.31559114       0.00000000
Si       2.40518592      -0.50989329      -0.20424012       0.00000000
Si      -3.25943352      -1.12845717       0.44604005       0.00000000
Si       2.39348970      -0.56107647      -2.56517743       0.00000000
Si       0.13377348       3.59298756      -0.39073218       0.00000000
Si      -0.52608555      -3.78980334       0.02878898       0.00000000
Si      -2.49072471      -1.21334436       2.66124389       0.00000000
Si       1.16608707       0.06563241       3.71260926       0.00000000
