10
Lattice="16.28999089631971 0.0 0.0 0.0 16.28999089631971 0.0 0.0 0.0 34.395419527814205" Properties=species:S:1:pos:R:3:initial_magmoms:R:1 pbc="T T T"
Si       1.35738054      -1.35606105       1.35741599       0.00000000
Si      -1.35645201       1.35846581       1.35610896       0.00000000
Si       1.37678193       1.34987124      -1.35906353       0.00000000
Si      -1.35834165      -1.35405738      -1.37508149       0.00000000
Si      -0.02593368       2.61203049      -2.72752734       0.00000000
Si       2.63811663      -0.12079035      -2.74900385       0.00000000
Si      -2.71381626      -2.71072116      -0.00323317       0.00000000
Si       0.00055386      -2.71329498       2.71455682       0.00000000
Si      -2.71422351       0.00131949       2.71435044       0.00000000
Si       2.71731861      -2.71210581      -0.00175417       0.00000000
