10
Lattice="16.28999089631971 0.0 0.0 0.0 16.28999089631971 0.0 0.0 0.0 34.395419527814205" Properties=species:S:1:pos:R:3:initial_magmoms:R:1 pbc="T T T"
Si       1.34855620       1.34392500      -1.35548985       0.00000000
Si       1.35329949      -1.36050822       1.35851664       0.00000000
Si      -1.35993807       1.35604476       1.35917016       0.00000000
Si      -1.34783460      -1.38047976      -1.38090464       0.00000000
Si      -0.07920198       2.59131546      -2.74724968       0.00000000
Si       2.71276134      -0.00125433       2.71607022       0.00000000
Si      -2.71731861       2.71210581       0.00175417       0.00000000
Si       2.71207553       2.71736748      -0.00137582       0.00000000
Si      -0.00166158       2.71321353       2.71634538       0.00000000
Si       2.71391304      -2.71666701      -0.00257966       0.00000000
