10
Lattice="16.28999089631971 0.0 0.0 0.0 16.28999089631971 0.0 0.0 0.0 34.395419527814205" Properties=species:S:1:pos:R:3:initial_magmoms:R:1 pbc="T T T"
Si      -2.12025753      -0.52714440       0.79030400       0.00000000
Si       1.82978421      -1.33942896       0.65564585       0.00000000
Si       0.62056755      -0.84835062      -2.16127179       0.00000000
Si       0.22985190       2.38877442       0.20706054       0.00000000
Si       1.32905223       2.66008274      -1.82402451       0.00000000
Si      -1.72144575      -0.37906830       3.08255362       0.00000000
Si       3.50623421       0.24177618       0.67765893       0.00000000
Si       2.71631582      -1.98296541      -1.53393338       0.00000000
Si       0.18370233       1.28011937      -3.52429424       0.00000000
Si      -3.66433776       1.19598641       0.51589719       0.00000000
