10
Lattice="16.28999089631971 0.0 0.0 0.0 16.28999089631971 0.0 0.0 0.0 34.395419527814205" Properties=species:S:1:pos:R:3:initial_magmoms:R:1 pbc="T T T"
Si       2.12025753       0.52714440      -0.79030400       0.00000000
Si      -1.54408023       1.72313081      -0.27440681       0.00000000
Si       0.39881178       0.14807610       2.29224962       0.00000000
Si      -1.18519524      -1.79740602      -0.92485895       0.00000000
Si      -0.13377348      -3.59298756       0.39073218       0.00000000
Si      -3.53963781       0.73839312       0.37680203       0.00000000
Si       0.36365796       2.46761150       2.68150280       0.00000000
Si       2.35010943       2.91591882      -0.58324345       0.00000000
Si      -0.99235422       2.89102607      -2.25145663       0.00000000
Si      -1.30083795      -1.04055633       3.43510686       0.00000000
