10
Lattice="16.28999089631971 0.0 0.0 0.0 16.28999089631971 0.0 0.0 0.0 34.395419527814205" Properties=species:S:1:pos:R:3:initial_magmoms:R:1 pbc="T T T"
Si       0.77797782      -1.16952426      -1.86419838       0.00000000
Si      -2.35019088       0.36551502       0.18594174       0.00000000
Si       0.65498832       2.25357489      -0.53223502       0.00000000
Si       0.63011349      -1.55118267       1.74298886       0.00000000
Si      -0.52896888       0.22235850       3.04502819       0.00000000
Si       3.13787169      -0.23499954      -1.50277111       0.00000000
Si      -2.73294072       1.65754008      -1.75647187       0.00000000
Si      -0.27458424      -3.66810075       0.89754897       0.00000000
Si      -1.06355781      -1.45595133      -3.39101191       0.00000000
Si      -1.31411430       3.43221082      -1.13756035       0.00000000
