10
Lattice="16.28999089631971 0.0 0.0 0.0 16.28999089631971 0.0 0.0 0.0 34.395419527814205" Properties=species:S:1:pos:R:3:initial_magmoms:R:1 pbc="T T T"
Si       1.35321030       1.35865116       1.38629784       0.00000000
Si      -1.36261778      -1.35591444       1.38660740       0.00000000
Si      -1.35778616       1.44029664      -1.40178611       0.00000000
Si       1.31134500      -1.49872887      -1.46843415       0.00000000
Si       2.71422351       2.70438435      -0.00904256       0.00000000
Si       2.71067229      -2.71132389       0.01656140       0.00000000
Si      -2.72797462       2.70467757       0.03369721       0.00000000
Si      -2.72763737      -2.70821250       0.00504237       0.00000000
Si       2.70954828       0.00065160       2.74756612       0.00000000
Si      -0.00571779      -2.71383255       2.74773810       0.00000000
