10
Lattice="16.28999089631971 0.0 0.0 0.0 16.28999089631971 0.0 0.0 0.0 34.395419527814205" Properties=species:S:1:pos:R:3:initial_magmoms:R:1 pbc="T T T"
Si       1.76280117      -0.99417870       1.26671522       0.00000000
Si       1.27928139       1.43314533      -1.42149469       0.00000000
Si      -1.44395767      -1.42576596      -1.29856539       0.00000000
Si      -1.77031153       1.05420735       1.36429508       0.00000000
Si      -1.58279734      -1.95089040       2.64514682       0.00000000
Si       0.63672234      -1.67218479       3.28273507       0.00000000
Si       2.57425494       2.75113665      -0.03584005       0.00000000
Si      -2.78294680      -2.52889218       0.32077186       0.00000000
Si       2.62490055      -0.01410714      -2.73223607       0.00000000
Si       3.33393909       1.08126504       1.48048287       0.00000000
