10
Lattice="16.28999089631971 0.0 0.0 0.0 16.28999089631971 0.0 0.0 0.0 34.395419527814205" Properties=species:S:1:pos:R:3:initial_magmoms:R:1 pbc="T T T"
Si       1.35516510       1.34169490      -1.38166477       0.00000000
Si       1.35953082      -1.32531156       1.41172639       0.00000000
Si      -1.36005817      -1.37251726      -1.37836281       0.00000000
Si      -1.32423055       1.33908850       1.57933536       0.00000000
Si      -0.33884340      -2.16874213       2.76470537       0.00000000
Si      -2.13321527      -0.60255244       2.87435803       0.00000000
Si      -2.71548503       2.69484004       0.02228824       0.00000000
Si       2.70291825       2.70865396      -0.00141021       0.00000000
Si      -0.00046101       2.69971075      -2.73887439       0.00000000
Si       2.71772586      -2.73161050       0.00622557       0.00000000
