10
Lattice="16.28999089631971 0.0 0.0 0.0 16.28999089631971 0.0 0.0 0.0 34.395419527814205" Properties=species:S:1:pos:R:3:initial_magmoms:R:1 pbc="T T T"
Si       1.02386885       0.84195421      -1.89102683       0.00000000
Si      -1.95229201      -1.33175637      -0.18865898       0.00000000
Si       1.43109931      -1.49149611       1.16531746       0.00000000
Si      -0.48064542       2.21917760       0.89029154       0.00000000
Si      -2.05447918       2.58609356      -0.84770998       0.00000000
Si       0.71994795      -0.91872342       3.33577284       0.00000000
Si       2.76057508       2.12337611      -0.90638860       0.00000000
Si      -0.52579300       2.46947345      -2.58471404       0.00000000
Si      -1.45536556      -0.05879061       3.32397520       0.00000000
Si      -3.06892264      -0.78874551       1.78020472       0.00000000
