10
Lattice="16.28999089631971 0.0 0.0 0.0 16.28999089631971 0.0 0.0 0.0 34.395419527814205" Properties=species:S:1:pos:R:3:initial_magmoms:R:1 pbc="T T T"
Si       0.89551669      -1.74397482      -1.21532843       0.00000000
Si       0.66381913       1.98684243      -1.09181441       0.00000000
Si       1.24043137       0.25422174       2.09471662       0.00000000
Si      -2.35989387      -0.93452472      -0.36142727       0.00000000
Si      -1.51149438       2.84677524      -1.10361205       0.00000000
Si       0.97752543       2.51807562       2.19264043       0.00000000
Si      -3.13787169       0.23499954       1.50277111       0.00000000
Si       0.58754283      -0.87120549      -3.37395177       0.00000000
Si       0.00828509      -3.58451676      -0.04034585       0.00000000
Si      -2.48288337       2.48857443       0.97053610       0.00000000
