10
Lattice="10.86 0.0 0.0 0.0 10.86 0.0 0.0 0.0 10.86" Properties=species:S:1:pos:R:3:initial_magmoms:R:1 pbc="T T T"
Si       1.85993790       0.64737546      -0.81428280       0.00000000
Si      -0.85506210       0.64737546       1.90071720       0.00000000
Si      -0.85506210      -2.06762454      -0.81428280       0.00000000
Si       0.50243790       2.00487546      -2.17178280       0.00000000
Si      -2.21256210       2.00487546       0.54321720       0.00000000
Si      -2.21256210      -0.71012454      -2.17178280       0.00000000
Si      -0.85506210       3.36237546      -0.81428280       0.00000000
Si      -0.85506210       0.64737546      -3.52928280       0.00000000
Si      -3.57006210       0.64737546      -0.81428280       0.00000000
Si       3.21743790       2.00487546       0.54321720       0.00000000
