10
Lattice="10.86 0.0 0.0 0.0 10.86 0.0 0.0 0.0 10.86" Properties=species:S:1:pos:R:3:initial_magmoms:R:1 pbc="T T T"
Si       1.35750000       1.35750000       1.35750000       0.00000000
Si       1.35750000      -1.35750000      -1.35750000       0.00000000
Si      -1.35750000      -1.35750000       1.35750000       0.00000000
Si      -1.35750000       1.35750000      -1.35750000       0.00000000
Si       0.00939390      -2.56706508      -2.70046932       0.00000000
Si      -0.03670680       2.70315174       2.62244022       0.00000000
Si      -2.49883170       2.82133026       0.05955624       0.00000000
Si       2.61722742      -2.75231496      -0.11533320       0.00000000
Si       2.75479104       2.64033750       0.16395342       0.00000000
Si      -0.12812628      -2.69360580       2.72321016       0.00000000
