10
Lattice="10.86 0.0 0.0 0.0 10.86 0.0 0.0 0.0 10.86" Properties=species:S:1:pos:R:3:initial_magmoms:R:1 pbc="T T T"
Si       1.50483762       1.12753950       1.43221680       0.00000000
Si      -1.26541806       1.34957220      -1.56016932       0.00000000
Si      -1.21016238      -1.58746050       1.43221680       0.00000000
Si       1.50483762      -1.58746050      -1.28278320       0.00000000
Si      -2.36570982       2.47629720       0.12776790       0.00000000
Si      -2.56433922      -0.08226450      -2.68632960       0.00000000
Si       0.14733762       2.48503950       2.78971680       0.00000000
Si      -2.56766238      -0.22996050       2.78971680       0.00000000
Si       2.91602946       2.52649212       0.09418878       0.00000000
Si      -2.56766238      -2.94496050       0.07471680       0.00000000
