10
Lattice="10.86 0.0 0.0 0.0 10.86 0.0 0.0 0.0 10.86" Properties=species:S:1:pos:R:3:initial_magmoms:R:1 pbc="T T T"
Si       1.17432438      -1.51360164      -1.39390272       0.00000000
Si      -1.54067562       1.20139836      -1.39390272       0.00000000
Si      -1.54067562      -1.51360164       1.32109728       0.00000000
Si       1.95961098       1.78363554      -0.08428446       0.00000000
Si       1.45670610       0.76242630       2.29635786       0.00000000
Si       2.53182438      -0.15610164      -2.75140272       0.00000000
Si      -0.18317562       2.55889836      -2.75140272       0.00000000
Si      -0.03430674       2.58425646       2.74071648       0.00000000
Si      -0.17985246      -2.72340564       2.63255088       0.00000000
Si       2.46770694      -2.97287070      -0.10159530       0.00000000
