10
Lattice="10.86 0.0 0.0 0.0 10.86 0.0 0.0 0.0 10.86" Properties=species:S:1:pos:R:3:initial_magmoms:R:1 pbc="T T T"
Si       1.92971340      -0.58223718      -1.30961826       0.00000000
Si      -0.78528660       2.13276282      -1.30961826       0.00000000
Si      -0.50290488      -1.02120924       2.38064232       0.00000000
Si      -1.95961098      -1.78363554       0.08428446       0.00000000
Si       1.92971340       2.13276282       1.40538174       0.00000000
Si       0.57221340      -1.93973718      -2.66711826       0.00000000
Si      -2.14278660       0.77526282      -2.66711826       0.00000000
Si      -1.99391772       0.80062092       2.82500094       0.00000000
Si      -0.78528660      -3.29723718      -1.30961826       0.00000000
Si      -3.50028660      -0.58223718      -1.30961826       0.00000000
