10
Lattice="16.290000149 0.0 0.0 0.0 16.290000149 0.0 0.0 0.0 29.1751946751" Properties=species:S:1:pos:R:3:initial_magmoms:R:1 pbc="T T T"
Si      -1.34696310      -1.32901966       1.38044184       0.00000000
Si       1.36199062       1.36783873       1.36302425       0.00000000
Si      -1.38501980       1.34003170      -1.37146463       0.00000000
Si       1.38386809      -1.37080351      -1.35220901       0.00000000
Si       2.68442912       0.11143989      -2.62771963       0.00000000
Si      -2.67807602      -2.68933241       0.00153170       0.00000000
Si      -2.60426001      -0.15055218      -2.76765816       0.00000000
Si      -0.04007340       2.80147278      -2.60682407       0.00000000
Si      -2.70137072       0.05949108       2.71080154       0.00000000
Si       0.02234988      -2.67781538       2.74441137       0.00000000
