10
Lattice="16.290000149 0.0 0.0 0.0 16.290000149 0.0 0.0 0.0 29.1751946751" Properties=species:S:1:pos:R:3:initial_magmoms:R:1 pbc="T T T"
Si      -1.36963063       1.38717496       1.31157088       0.00000000
Si      -1.36036162      -1.34517934      -1.36755808       0.00000000
Si       1.35435061       1.34754139      -1.37383074       0.00000000
Si       1.34589610      -1.33980364       1.40274336       0.00000000
Si       0.01453068       2.73543311       2.65389241       0.00000000
Si       2.67314015      -2.73027733       0.04061187       0.00000000
Si      -2.69550632      -2.70882014       0.00175051       0.00000000
Si      -0.06341697      -2.62297347       2.78841923       0.00000000
Si      -0.00974142      -2.69493617      -2.74022181       0.00000000
Si       2.72837954       2.71143794      -0.04204146       0.00000000
