10
Lattice="16.290000149 0.0 0.0 0.0 16.290000149 0.0 0.0 0.0 29.1751946751" Properties=species:S:1:pos:R:3:initial_magmoms:R:1 pbc="T T T"
Si      -0.43754940       0.24882975      -2.28385933       0.00000000
Si       0.80874964       1.85867273       1.18302614       0.00000000
Si      -1.87393646      -0.80267347       1.19640296       0.00000000
Si       1.63253494      -1.73599274       0.08516648       0.00000000
Si       2.18391887       0.59440582       2.60022289       0.00000000
Si      -0.67139236      -2.20014371       2.63805144       0.00000000
Si      -2.15239772       1.88164163      -2.17944131       0.00000000
Si      -0.48879774      -2.04731093      -2.94599037       0.00000000
Si       1.71553250      -2.42888789      -2.14416850       0.00000000
Si       0.64394371      -3.52351726       1.23728908       0.00000000
