10
Lattice="16.290000149 0.0 0.0 0.0 16.290000149 0.0 0.0 0.0 29.1751946751" Properties=species:S:1:pos:R:3:initial_magmoms:R:1 pbc="T T T"
Si      -1.52337565       1.31739512       1.18979361       0.00000000
Si       1.40931307       1.28316983      -1.38567587       0.00000000
Si      -1.23145885      -1.42847989      -1.42841753       0.00000000
Si       0.98505631      -0.85244756       1.99181972       0.00000000
Si      -0.08242740       2.64504642       2.40114770       0.00000000
Si      -0.76504357      -1.17962244       3.48013392       0.00000000
Si       1.10053612      -3.16049786       1.75973104       0.00000000
Si      -2.68389155      -0.12119923       2.69920149       0.00000000
Si      -2.57572595      -2.80426814      -0.11465852       0.00000000
Si       0.06341697       2.62297347      -2.78841923       0.00000000
