10
Lattice="16.290000149 0.0 0.0 0.0 16.290000149 0.0 0.0 0.0 29.1751946751" Properties=species:S:1:pos:R:3:initial_magmoms:R:1 pbc="T T T"
H       -1.35814618      -0.94465711      -0.37714774       0.00000000
H        1.90211816       0.62405362       0.93602777       0.00000000
Si       1.44663346      -1.86600323      -0.41729281       0.00000000
Si       0.42187842       1.72602326      -1.62826761       0.00000000
Si      -0.95646736       0.16951374       2.21518501       0.00000000
H       -1.40149387       2.32961663      -0.04463805       0.00000000
H        0.29519109      -1.77981284       2.31452654       0.00000000
Si      -2.43077753      -1.12073572      -1.58762657       0.00000000
H       -3.06473547      -0.42751476       0.87029606       0.00000000
Si       1.74260648      -2.09846153       1.94003375       0.00000000
