10
Lattice="16.290000149 0.0 0.0 0.0 16.290000149 0.0 0.0 0.0 29.1751946751" Properties=species:S:1:pos:R:3:initial_magmoms:R:1 pbc="T T T"
Si       1.25719705       1.36902790      -1.42581802       0.00000000
Si       1.37516923      -1.26426691       1.41719675       0.00000000
Si      -0.80874964      -1.85867273      -1.18302614       0.00000000
Si      -1.42680853       1.37585341       1.29317008       0.00000000
Si      -2.68268609      -2.66134619       0.01337683       0.00000000
Si      -0.05193252      -2.65509083       2.69829997       0.00000000
Si       2.66211182      -2.71391402       0.08975457       0.00000000
Si       2.64741824       2.74786239      -0.08543372       0.00000000
Si      -0.08278578       2.74519083       2.65625852       0.00000000
Si      -0.19368810       2.78275557      -2.64668322       0.00000000
