10
Lattice="16.290000149 0.0 0.0 0.0 16.290000149 0.0 0.0 0.0 29.1751946751" Properties=species:S:1:pos:R:3:initial_magmoms:R:1 pbc="T T T"
Si       1.35570268       1.33995025      -1.31597341       0.00000000
Si       1.43321050      -1.31984839       1.28286249       0.00000000
Si      -1.33608952       1.44127405       1.28916433       0.00000000
Si      -1.30460095      -1.29513646      -1.47569885       0.00000000
Si      -0.05095512       2.70295085      -2.57084522       0.00000000
Si       0.05328459      -2.63761166       2.64651108       0.00000000
Si      -2.67175550      -2.64538199      -0.12510323       0.00000000
Si      -2.69982317       0.07970697       2.61885300       0.00000000
Si       2.77941612      -2.59906952      -0.17782281       0.00000000
Si       2.76856698       0.08433333       2.62142042       0.00000000
