10
Lattice="16.290000149 0.0 0.0 0.0 16.290000149 0.0 0.0 0.0 29.1751946751" Properties=species:S:1:pos:R:3:initial_magmoms:R:1 pbc="T T T"
Si       1.34698753       1.35689185       1.36245242       0.00000000
Si      -1.35260758       1.36735003      -1.35620892       0.00000000
Si      -1.36024759      -1.34451145       1.37225528       0.00000000
Si       1.37777563      -1.34902378      -1.35046141       0.00000000
Si      -0.05043384      -2.75274939      -2.59373607       0.00000000
Si       2.67822263      -2.69845481       0.06806573       0.00000000
Si      -0.02316438       2.72020196       2.69870551       0.00000000
Si      -2.67237452       0.02637351      -2.75106623       0.00000000
Si       2.69268815      -0.00224802       2.73173183       0.00000000
Si       2.69842223       2.73245205       0.01549203       0.00000000
