10
Lattice="16.290000149 0.0 0.0 0.0 16.290000149 0.0 0.0 0.0 29.1751946751" Properties=species:S:1:pos:R:3:initial_magmoms:R:1 pbc="T T T"
Si      -0.93126510       0.81626259       1.99432878       0.00000000
Si       1.36427285       1.38326862      -1.33173094       0.00000000
Si      -1.86792382      -0.89865741      -1.12216551       0.00000000
Si       1.84214001      -1.17414737       0.93168067       0.00000000
H        2.64403155       1.41953016      -0.51021580       0.00000000
H       -2.91395360       0.21538638      -1.10381432       0.00000000
Si       0.52689354      -2.59994593       2.27931208       0.00000000
Si       1.96333761      -0.13517442      -3.09038250       0.00000000
Si       0.40371344       2.79396634       2.48111691       0.00000000
Si      -0.64566507      -1.00927025       3.56512126       0.00000000
