10
Lattice="16.290000149 0.0 0.0 0.0 16.290000149 0.0 0.0 0.0 29.1751946751" Properties=species:S:1:pos:R:3:initial_magmoms:R:1 pbc="T T T"
Si       1.41895675      -1.33050205      -1.30226399       0.00000000
Si       1.37354023       1.32657616       1.36361942       0.00000000
Si      -1.35143470      -1.37556019       1.34696039       0.00000000
Si      -1.35149986       1.31880583      -1.40799490       0.00000000
Si       0.10645515      -2.69065190      -2.64705666       0.00000000
Si       0.00430056       2.70572015       2.68586842       0.00000000
Si       2.75346615       2.64433943      -0.00002918       0.00000000
Si      -2.72158661      -0.01225008       2.68321348       0.00000000
Si      -2.71417466       2.69239493      -0.05814616       0.00000000
Si       0.01565469       2.66905136      -2.75859051       0.00000000
