10
Lattice="16.290000149 0.0 0.0 0.0 16.290000149 0.0 0.0 0.0 29.1751946751" Properties=species:S:1:pos:R:3:initial_magmoms:R:1 pbc="T T T"
H       -0.17920629       1.38743723       0.61072435       0.00000000
Si       0.83334754      -1.24501050       1.71309449       0.00000000
Si       1.89431525       0.01766488      -1.34025009       0.00000000
Si      -1.90030997      -0.54957085      -1.28513815       0.00000000
Si       0.64093006       1.12482614      -2.94462322       0.00000000
Si      -2.63003681       1.64051867      -0.88333737       0.00000000
Si      -0.69312322       2.67011184      -1.78700985       0.00000000
Si       1.87323599       0.60819041       2.66590384       0.00000000
Si       2.33295608      -2.27061262      -1.03650714       0.00000000
Si      -0.99880507      -2.26839718       2.65437380       0.00000000
