10
Lattice="16.290000149 0.0 0.0 0.0 16.290000149 0.0 0.0 0.0 29.1751946751" Properties=species:S:1:pos:R:3:initial_magmoms:R:1 pbc="T T T"
Si      -2.19434447       0.73324549       0.46044292       0.00000000
Si      -0.27347652      -2.03903561       1.19653308       0.00000000
Si       1.57286467       1.32528925       1.19968401       0.00000000
Si      -0.28515645       0.90010396      -2.23811671       0.00000000
H        2.24038001      -0.92207917      -1.63060163       0.00000000
H        0.81596611      -1.86113252      -2.17159727       0.00000000
H        1.63841563      -2.59678892      -0.53402276       0.00000000
H        1.03690738      -2.47049255       1.81828566       0.00000000
Si      -2.15073614       2.88097938      -0.51771383       0.00000000
Si      -2.41378706      -0.06175539      -2.92563017       0.00000000
