10
Lattice="16.290000149 0.0 0.0 0.0 16.290000149 0.0 0.0 0.0 29.1751946751" Properties=species:S:1:pos:R:3:initial_magmoms:R:1 pbc="T T T"
Si       1.38155165      -1.45093565       1.15522101       0.00000000
Si      -1.22645435      -1.36059587      -1.44714801       0.00000000
Si       1.41093881       1.29282165      -1.38783484       0.00000000
Si      -1.21989582       1.28571921       1.60475241       0.00000000
H        1.62529893       1.51495209       2.11129214       0.00000000
Si       2.22498270       0.20419189       2.55533860       0.00000000
Si      -2.51570056       2.65363940       0.12379035       0.00000000
Si      -2.53989121      -2.69145174      -0.07912313       0.00000000
Si       0.06036911       2.63047502      -2.75997342       0.00000000
Si      -2.69775760      -0.06433898      -2.71113414       0.00000000
