10
Lattice="16.290000149 0.0 0.0 0.0 16.290000149 0.0 0.0 0.0 29.1751946751" Properties=species:S:1:pos:R:3:initial_magmoms:R:1 pbc="T T T"
H       -0.62817499      -0.08447994      -1.38946865       0.00000000
Si       0.46459080      -2.02559636       1.06740367       0.00000000
Si      -1.71784568       0.44320203       1.52755484       0.00000000
Si       1.88693588       1.50799789       0.31447942       0.00000000
H        1.51109299      -0.88459588      -1.70590281       0.00000000
Si       0.72902638      -0.94091041      -2.99769290       0.00000000
Si      -2.56982897       2.29016225       0.41145777       0.00000000
Si      -0.35039790       1.47160603       3.16661728       0.00000000
Si       2.05467401      -1.21445209       2.63475348       0.00000000
Si       0.91631251       2.95134078       1.83993365       0.00000000
