10
Lattice="16.290000149 0.0 0.0 0.0 16.290000149 0.0 0.0 0.0 29.1751946751" Properties=species:S:1:pos:R:3:initial_magmoms:R:1 pbc="T T T"
Si       1.37497375       1.34232859      -1.34240906       0.00000000
Si       1.36213723      -1.39385386       1.30526903       0.00000000
Si      -1.35428545      -1.35316144      -1.36081861       0.00000000
Si      -1.35242839       1.36940257       1.35086986       0.00000000
Si       0.00573408       2.69081480      -2.68341771       0.00000000
Si       2.78236461      -0.08257401       2.61786104       0.00000000
Si      -2.74062963       0.00956223       2.66480393       0.00000000
Si       0.01255959      -2.75134845       2.65861879       0.00000000
Si       0.01495422      -2.73230543      -2.68306760       0.00000000
Si       0.02484225       2.73569376       2.68604347       0.00000000
