10
Lattice="16.290000149 0.0 0.0 0.0 16.290000149 0.0 0.0 0.0 29.1751946751" Properties=species:S:1:pos:R:3:initial_magmoms:R:1 pbc="T T T"
Si       1.36941886       1.35770635       1.32735466       0.00000000
Si       1.37117818      -1.35637057      -1.33316052       0.00000000
Si      -1.34265439       1.38347713      -1.34372194       0.00000000
Si      -1.37614663      -1.33604065       1.36198561       0.00000000
Si      -0.06952572       2.69316056       2.60519901       0.00000000
Si      -0.00169416      -2.70399341      -2.67626978       0.00000000
Si      -2.69027723       0.02173086      -2.69465016       0.00000000
Si      -0.02086749      -2.70291827       2.69829705       0.00000000
Si       2.72160290       0.00848709      -2.68931109       0.00000000
Si       2.72212418       2.71060715      -0.03369735       0.00000000
