10
Lattice="16.290000149 0.0 0.0 0.0 16.290000149 0.0 0.0 0.0 29.1751946751" Properties=species:S:1:pos:R:3:initial_magmoms:R:1 pbc="T T T"
Si      -1.25338519       1.10716126      -1.60437313       0.00000000
Si      -1.89431525      -0.01766488       1.34025009       0.00000000
Si       1.57358143       1.68576578       0.44381306       0.00000000
Si       0.43864083      -2.28827750       0.30374295       0.00000000
H        1.83721880       0.57975296      -2.37763249       0.00000000
H       -2.07352154       1.36977236       1.95097444       0.00000000
Si      -1.06096771      -1.26267538       3.05334459       0.00000000
Si       2.05053635      -2.46424208      -1.37663156       0.00000000
Si       0.84445732       2.31869744       2.62401147       0.00000000
Si      -2.58743846       2.65244697      -0.44675976       0.00000000
