10
Lattice="16.290000149 0.0 0.0 0.0 16.290000149 0.0 0.0 0.0 29.1751946751" Properties=species:S:1:pos:R:3:initial_magmoms:R:1 pbc="T T T"
Si       1.37635840       1.34011315       1.33345227       0.00000000
Si       1.37839465      -1.36668214      -1.31136665       0.00000000
Si      -1.35270532      -1.35290080       1.36105201       0.00000000
Si      -1.35094600       1.37596744      -1.34235071       0.00000000
Si      -0.05719419       2.66141135       2.61780269       0.00000000
Si      -0.00052128      -2.70212006      -2.65561374       0.00000000
Si       2.73458604      -0.01110978      -2.66909268       0.00000000
Si      -2.71637381       0.02032992      -2.68864007       0.00000000
Si       0.00895950      -2.67892310       2.74313933       0.00000000
Si       2.72593604       2.69760773      -0.01989748       0.00000000
