10
Lattice="16.290000149 0.0 0.0 0.0 16.290000149 0.0 0.0 0.0 29.1751946751" Properties=species:S:1:pos:R:3:initial_magmoms:R:1 pbc="T T T"
Si       1.54220689      -1.26956116      -1.19495762       0.00000000
Si       1.39649284       1.32006016       1.36722256       0.00000000
Si      -1.21435435      -1.43485579       1.44508824       0.00000000
Si      -1.47189925       1.20941848      -1.45800118       0.00000000
H        0.36719289      -1.80843437      -2.25311276       0.00000000
Si      -2.66890475       2.68038920      -0.02456551       0.00000000
Si       2.85956894       2.49919553      -0.04530908       0.00000000
Si      -2.64616391      -0.06327036       2.72958162       0.00000000
Si      -0.13260060       2.55450008      -2.83399089       0.00000000
Si       0.06722883       2.76107358       2.68190351       0.00000000
