10
Lattice="16.290000149 0.0 0.0 0.0 16.290000149 0.0 0.0 0.0 29.1751946751" Properties=species:S:1:pos:R:3:initial_magmoms:R:1 pbc="T T T"
Si       1.41198626       1.39043296      -1.25669525       0.00000000
Si       1.36570637      -1.34793235       1.37208023       0.00000000
Si      -1.28140709       1.34517934       1.45636737       0.00000000
Si      -1.39064310      -1.28697517      -1.43485650       0.00000000
Si      -2.69372909      -2.64083708      -0.00058350       0.00000000
Si      -2.59835113       2.78050917       0.18056528       0.00000000
Si       0.13287753       2.76397645      -2.64365775       0.00000000
Si       2.74188558       0.07594398      -2.67620851       0.00000000
Si       2.71803702      -2.71713944       0.01371234       0.00000000
Si       2.71336179       2.71771611       0.16883685       0.00000000
