10
Lattice="16.290000149 0.0 0.0 0.0 16.290000149 0.0 0.0 0.0 29.1751946751" Properties=species:S:1:pos:R:3:initial_magmoms:R:1 pbc="T T T"
Si      -0.83334754       1.24501050      -1.71309449       0.00000000
Si      -1.83215261      -1.02338668       0.94127931       0.00000000
Si       1.03988845       1.85320092       0.95280934       0.00000000
Si       1.74656495      -1.54209286      -0.45140036       0.00000000
H       -1.01255383       2.63244773      -1.10237014       0.00000000
Si      -0.42549480      -2.38638728       2.19615111       0.00000000
Si       1.49960854      -1.02560212      -2.74960163       0.00000000
Si       2.45711846       0.51038558       2.20715307       0.00000000
Si       1.06096771       1.26267538      -3.05334459       0.00000000
Si       0.99652447      -0.92655892       3.42159389       0.00000000
