10
Lattice="16.290000149 0.0 0.0 0.0 16.290000149 0.0 0.0 0.0 29.1751946751" Properties=species:S:1:pos:R:3:initial_magmoms:R:1 pbc="T T T"
H       -1.12960400       0.97521715       0.27981929       0.00000000
H        1.50982563      -1.45428976      -0.63024256       0.00000000
Si       1.46882370       1.21169908      -1.38833081       0.00000000
Si       1.27735104       0.16539237       2.03292756       0.00000000
Si      -1.33536911      -1.68352265      -1.13678229       0.00000000
H       -2.30060088      -0.83637748       2.23371125       0.00000000
Si       2.10950941      -2.76504996      -0.18619609       0.00000000
Si       0.05097304       2.43056576      -2.77768276       0.00000000
Si      -2.63117386      -0.31560246      -2.61774434       0.00000000
Si       0.74689976       2.54681120       2.77100164       0.00000000
