10
Lattice="16.290000149 0.0 0.0 0.0 16.290000149 0.0 0.0 0.0 29.1751946751" Properties=species:S:1:pos:R:3:initial_magmoms:R:1 pbc="T T T"
Si      -0.53553375      -0.25656750       1.38693040       0.00000000
H       -0.68461984      -0.91246807      -1.60921621       0.00000000
H       -1.60801849       0.84885562      -1.16473212       0.00000000
H        1.27584910       1.75526381       0.42441156       0.00000000
Si       0.44518941      -0.98359021      -2.61424332       0.00000000
Si       2.18152424       1.83239696      -0.79304014       0.00000000
Si       2.50387076      -0.28960362      -1.71856484       0.00000000
Si       1.15217542      -1.19066869       2.69777190       0.00000000
Si      -2.33396606      -1.85184722       1.26929602       0.00000000
Si      -1.38771253       1.61819974       2.50305665       0.00000000
