10
Lattice="16.290000149 0.0 0.0 0.0 16.290000149 0.0 0.0 0.0 29.1751946751" Properties=species:S:1:pos:R:3:initial_magmoms:R:1 pbc="T T T"
Si       1.28259316       1.29536452      -1.50231830       0.00000000
Si       1.26799732      -1.63219285       1.15898461       0.00000000
Si      -1.01924902       1.75270628       1.26016418       0.00000000
Si      -1.26174196      -1.65289745      -1.21117903       0.00000000
H        0.21849777      -2.75486709       1.35311635       0.00000000
H       -3.08511426      -1.04930407       0.37245054       0.00000000
H       -2.48360600      -1.17560044      -1.97985789       0.00000000
H       -0.30371076      -1.23515668       3.16933057       0.00000000
H       -1.88164163       0.49910931      -3.07643675       0.00000000
Si      -2.54915696       2.74647774      -0.24615112       0.00000000
