10
Lattice="16.290000149 0.0 0.0 0.0 16.290000149 0.0 0.0 0.0 29.1751946751" Properties=species:S:1:pos:R:3:initial_magmoms:R:1 pbc="T T T"
Si      -1.42006447       1.37259541      -1.25076977       0.00000000
Si      -1.30118005      -1.23416299       1.50231830       0.00000000
Si       1.18328932      -1.45492507      -1.40951201       0.00000000
Si       1.84857293       0.94293037       1.10445617       0.00000000
Si       3.44012223      -0.83298916       1.00365587       0.00000000
Si      -0.04212594       2.69159672      -2.61365981       0.00000000
Si       2.57460194      -2.74049931      -0.04708876       0.00000000
Si       2.56919366      -0.11624544      -2.74664035       0.00000000
Si      -2.77322592      -0.00869886      -2.60414870       0.00000000
Si      -2.73098594      -2.64368783       0.18059446       0.00000000
