10
Lattice="16.290000149 0.0 0.0 0.0 16.290000149 0.0 0.0 0.0 29.1751946751" Properties=species:S:1:pos:R:3:initial_magmoms:R:1 pbc="T T T"
Si      -1.30552948       1.42710175       1.30280344       0.00000000
Si       1.26671041       1.47973474      -1.32668363       0.00000000
Si       1.45088515      -1.41372766       1.22086520       0.00000000
Si      -1.36744777      -1.02840400      -1.63906244       0.00000000
Si       0.35039790      -1.47160603      -3.16661728       0.00000000
Si      -0.42099876       2.41383593      -2.63752512       0.00000000
Si       2.23733378       0.03639186      -2.85213786       0.00000000
Si      -2.21943107       0.81855622      -2.75515951       0.00000000
Si       2.40507191      -2.68605812      -0.53186380       0.00000000
Si      -2.60609051      -0.05514165       2.57831407       0.00000000
