10
Lattice="16.290000149 0.0 0.0 0.0 16.290000149 0.0 0.0 0.0 29.1751946751" Properties=species:S:1:pos:R:3:initial_magmoms:R:1 pbc="T T T"
Si       1.33111293       1.36031275       1.37891014       0.00000000
Si      -1.29494098      -1.31416318       1.46999510       0.00000000
Si      -1.38926008       1.35964486      -1.35665822       0.00000000
Si       1.40140591      -1.34907265      -1.36907519       0.00000000
Si      -0.10595016      -2.73378782      -2.53578801       0.00000000
Si       0.07381602       2.53878023      -2.76918986       0.00000000
Si      -2.68517846      -2.65890269       0.19435639       0.00000000
Si       2.67807602       2.68933241      -0.00153170       0.00000000
Si       2.70042590       0.01151703       2.74287967       0.00000000
Si       2.75964006      -2.68877855       0.01232360       0.00000000
