10
Lattice="16.290000149 0.0 0.0 0.0 16.290000149 0.0 0.0 0.0 29.1751946751" Properties=species:S:1:pos:R:3:initial_magmoms:R:1 pbc="T T T"
Si       0.29597301      -0.23245830       2.35732655       0.00000000
Si       1.56910168       1.07769754      -1.44907357       0.00000000
Si      -1.44663346       1.86600323       0.41729281       0.00000000
Si      -1.17542125      -1.63802467      -1.35104491       0.00000000
H        1.80736574      -1.62771310       0.23780701       0.00000000
H        0.45548469       2.49005684       1.35332058       0.00000000
H       -2.80477965       0.92134612       0.04014507       0.00000000
H       -1.15144237       0.08619039       2.73181935       0.00000000
Si      -2.49823442      -0.26723745      -2.77844131       0.00000000
Si       0.27217332       2.48028284      -2.81263464       0.00000000
