10
Lattice="16.290000149 0.0 0.0 0.0 16.290000149 0.0 0.0 0.0 29.1751946751" Properties=species:S:1:pos:R:3:initial_magmoms:R:1 pbc="T T T"
Si       1.37482714      -1.34763913       1.33502773       0.00000000
Si       1.36459702       1.34741107      -1.35005296       0.00000000
Si      -1.34993602      -1.37016820      -1.35107409       0.00000000
Si      -1.35062020       1.34975683       1.37266373       0.00000000
Si       0.01979235      -2.70181055       2.66953031       0.00000000
Si       0.00171045       2.71316468      -2.68566420       0.00000000
Si      -2.73258236      -0.01093059      -2.67338144       0.00000000
Si      -2.71979471       2.69405651       0.00919019       0.00000000
Si       2.72445365       2.69102657       0.01336224       0.00000000
Si       2.72719037      -0.01513341      -2.69581716       0.00000000
