10
Lattice="16.290000149 0.0 0.0 0.0 16.290000149 0.0 0.0 0.0 29.1751946751" Properties=species:S:1:pos:R:3:initial_magmoms:R:1 pbc="T T T"
Si       1.44741538      -0.31864869      -0.37449280       0.00000000
Si      -1.25165845       1.94932658      -0.09934154       0.00000000
Si      -2.03079287       0.06024042       1.13333961       0.00000000
Si      -0.29519109       1.77981284      -2.31452654       0.00000000
Si       0.63337150       2.65619855       1.14366763       0.00000000
Si       1.15144237      -0.08619039      -2.73181935       0.00000000
Si       2.63565686       1.28783854       1.03878281       0.00000000
Si       1.86331538      -2.45376272       0.52144825       0.00000000
Si      -0.99554707      -1.26728056       2.74535664       0.00000000
H        1.60692706       2.40386645      -1.37849877       0.00000000
