10
Lattice="16.290000149 0.0 0.0 0.0 16.290000149 0.0 0.0 0.0 29.1751946751" Properties=species:S:1:pos:R:3:initial_magmoms:R:1 pbc="T T T"
Si       1.36031275       1.35433432       1.35358316       0.00000000
Si      -1.33080016      -1.35765748       1.38348773       0.00000000
Si       1.37898109      -1.35931906      -1.33569876       0.00000000
Si      -1.36931298       1.34879572      -1.36396953       0.00000000
Si      -2.66563014      -2.73463491       0.03824868       0.00000000
Si      -0.00834048       2.70806591       2.70535745       0.00000000
Si       2.71583624       2.69817788      -0.02214397       0.00000000
Si      -0.02234988       2.67781538      -2.74441137       0.00000000
Si      -2.71919198       0.00346977       2.70652446       0.00000000
Si       2.70842429      -0.00646713       2.71921567       0.00000000
