10
Lattice="16.290000149 0.0 0.0 0.0 16.290000149 0.0 0.0 0.0 29.1751946751" Properties=species:S:1:pos:R:3:initial_magmoms:R:1 pbc="T T T"
Si       2.23300064      -0.50407776       0.32107302       0.00000000
Si      -1.04850586       0.67639827       2.06939656       0.00000000
Si      -0.06587676       2.05232825      -1.29692493       0.00000000
Si      -0.64769041      -1.76513555      -1.58966883       0.00000000
Si      -2.36659493       1.98301267      -0.93057201       0.00000000
H       -0.65964727      -2.90501202       1.53738688       0.00000000
Si       2.79754689      -1.53964936      -1.68755161       0.00000000
Si      -3.11683089       1.40175125       1.22494972       0.00000000
Si       3.47721456       1.28061881      -0.51794723       0.00000000
Si       1.17214696      -3.22502907      -1.75372095       0.00000000
