10
Lattice="16.290000149 0.0 0.0 0.0 16.290000149 0.0 0.0 0.0 29.1751946751" Properties=species:S:1:pos:R:3:initial_magmoms:R:1 pbc="T T T"
Si      -1.30805443      -1.31229798      -1.44580595       0.00000000
Si      -1.32724405       1.39047369       1.36213149       0.00000000
Si       1.25988490      -1.38594507       1.43740349       0.00000000
Si       1.36583506       1.36273182      -1.37441425       0.00000000
Si      -2.66308922      -2.66646940      -0.11130337       0.00000000
Si       2.65790900       0.03407868       2.69660489       0.00000000
Si       2.68910435      -2.66889661       0.02363191       0.00000000
Si      -2.67314015       2.73027733      -0.04061187       0.00000000
Si       0.07434756       2.75867080       2.67230196       0.00000000
Si      -2.68288157       0.03534116      -2.78083368       0.00000000
