10
Lattice="16.290000149 0.0 0.0 0.0 16.290000149 0.0 0.0 0.0 29.1751946751" Properties=species:S:1:pos:R:3:initial_magmoms:R:1 pbc="T T T"
Si      -1.61189551       0.17596458       1.68037451       0.00000000
Si       0.83271223       1.92995125      -1.01935213       0.00000000
Si       1.76928950      -1.15422796       1.03446488       0.00000000
Si      -1.55988154      -0.77910184      -1.59515377       0.00000000
H       -0.21331755       3.04399504      -1.00100093       0.00000000
Si      -2.05053635       2.46424208       1.37663156       0.00000000
Si      -2.47166543      -2.60517827      -0.41586322       0.00000000
Si       1.10938159       1.19571859      -3.22712663       0.00000000
Si       0.62007886      -2.78702355       2.22560055       0.00000000
Si      -0.41453163      -0.64969408      -3.65451406       0.00000000
