10
Lattice="16.290000149 0.0 0.0 0.0 16.290000149 0.0 0.0 0.0 29.1751946751" Properties=species:S:1:pos:R:3:initial_magmoms:R:1 pbc="T T T"
Si       1.35192340       1.35278677       1.36122706       0.00000000
Si       1.38839183      -1.36112725      -1.32303673       0.00000000
Si      -1.33858189      -1.35707104       1.38059939       0.00000000
Si      -1.34534224       1.38088702      -1.35442924       0.00000000
Si      -2.68921838       2.71181261       0.03276374       0.00000000
Si       0.05356185      -2.73810468      -2.66827578       0.00000000
Si      -2.70146846       0.03116277      -2.70926693       0.00000000
Si       2.69027723      -0.00648342       2.72452555       0.00000000
Si       2.71085150       2.70459614      -0.00116701       0.00000000
Si      -2.69711903      -2.72259659       0.04968536       0.00000000
