10
Lattice="16.290000149 0.0 0.0 0.0 16.290000149 0.0 0.0 0.0 29.1751946751" Properties=species:S:1:pos:R:3:initial_magmoms:R:1 pbc="T T T"
Si       1.34762284       1.36174627       1.35092821       0.00000000
Si      -1.34319685       1.35801586      -1.36341520       0.00000000
Si       1.35894439      -1.35550720      -1.35413749       0.00000000
Si      -1.36777194      -1.36518346       1.34398452       0.00000000
Si      -0.03360627      -2.69869916      -2.68370946       0.00000000
Si       2.69027723      -0.02173086       2.69465016       0.00000000
Si      -2.67802683      -0.01896156      -2.70865425       0.00000000
Si      -0.04131144       2.71265969       2.68414709       0.00000000
Si       2.69602760       2.70920621      -0.02768726       0.00000000
Si       2.68858307      -2.72572427       0.01838037       0.00000000
