10
Lattice="16.290000149 0.0 0.0 0.0 16.290000149 0.0 0.0 0.0 29.1751946751" Properties=species:S:1:pos:R:3:initial_magmoms:R:1 pbc="T T T"
Si       1.30552948      -1.42710175      -1.30280344       0.00000000
Si       1.41213124       1.29655369       1.34449829       0.00000000
Si      -1.30056103      -1.48224340       1.27551063       0.00000000
Si      -1.27827631       1.49675779      -1.33635491       0.00000000
Si       2.57223989       0.05263299      -2.62948707       0.00000000
Si      -2.68442912      -0.11143989       2.62771963       0.00000000
Si      -2.63497268       0.15040557      -2.67736356       0.00000000
Si       0.03056004       2.65352699       2.66944308       0.00000000
Si      -2.72450252       2.69003288       0.02089557       0.00000000
Si      -0.06191829      -2.45550575      -2.94186588       0.00000000
