10
Lattice="16.290000149 0.0 0.0 0.0 16.290000149 0.0 0.0 0.0 29.1751946751" Properties=species:S:1:pos:R:3:initial_magmoms:R:1 pbc="T T T"
Si       2.26811699      -0.48780405       0.12136881       0.00000000
Si      -0.27666936       0.73423266       2.20777451       0.00000000
Si      -0.57712213       1.74091557      -1.51512621       0.00000000
Si      -1.52391322      -1.84541267      -0.42738743       0.00000000
H       -1.32269914       1.84827645       2.22612570       0.00000000
Si       2.54796779      -1.30458466      -2.03333602       0.00000000
Si      -1.10938159      -1.19571859       3.22712663       0.00000000
Si      -2.66926313      -1.97482043       1.63197286       0.00000000
Si      -1.76510297       0.59466124      -3.20973822       0.00000000
Si      -3.05382117      -0.85164121      -1.93370273       0.00000000
