10
Lattice="16.290000149 0.0 0.0 0.0 16.290000149 0.0 0.0 0.0 29.1751946751" Properties=species:S:1:pos:R:3:initial_magmoms:R:1 pbc="T T T"
Si       1.32562320      -1.36153450       1.36493231       0.00000000
Si      -1.34012130      -1.36132273      -1.35483769       0.00000000
Si      -1.31979138       1.33530760       1.40916190       0.00000000
Si       1.35238767       1.36484137      -1.36332767       0.00000000
Si       2.63757094       0.07167600       2.67898308       0.00000000
Si      -2.65754248       2.70161507       0.03209271       0.00000000
Si      -2.67647146       0.01425375      -2.70725384       0.00000000
Si      -2.69294065      -2.70806591       0.02065604       0.00000000
Si       2.70782971      -2.70558983       0.00916101       0.00000000
Si       0.02592716      -2.71300178      -2.70349024       0.00000000
