10
Lattice="16.290000149 0.0 0.0 0.0 16.290000149 0.0 0.0 0.0 29.1751946751" Properties=species:S:1:pos:R:3:initial_magmoms:R:1 pbc="T T T"
Si       1.34097652      -1.35508366      -1.34637834       0.00000000
Si      -1.32155884      -1.40190112       1.34384010       0.00000000
Si       1.30354210       1.18521154       1.55373812       0.00000000
Si      -1.21547836       1.41620374      -1.44840400       0.00000000
Si      -0.16145019      -2.64582182      -2.63014526       0.00000000
Si       0.40203720       2.90403787      -2.38577383       0.00000000
Si      -2.70313004      -0.04492782       2.66878489       0.00000000
Si      -2.69705387       2.71533973      -0.10841648       0.00000000
Si      -2.73369009      -2.69845481      -0.00065819       0.00000000
Si      -0.01630629       2.67468019       2.76287197       0.00000000
