10
Lattice="16.290000149 0.0 0.0 0.0 16.290000149 0.0 0.0 0.0 29.1751946751" Properties=species:S:1:pos:R:3:initial_magmoms:R:1 pbc="T T T"
Si       1.05147064      -1.46419408      -1.48933534       0.00000000
Si      -1.31212693      -1.36145305       1.38051186       0.00000000
Si      -1.43451370       1.35757603      -1.29094401       0.00000000
Si       1.79396885       0.74831374       1.40589428       0.00000000
Si       2.11528910      -1.20948364       2.77038896       0.00000000
Si       0.26720487      -2.67680540       2.59924727       0.00000000
Si      -2.69092883       0.11999214       2.59837201       0.00000000
Si       2.44126829      -0.14876028      -2.84035108       0.00000000
Si       2.20550312      -3.07530768      -0.28256176       0.00000000
Si      -0.13333365       2.59173902      -2.79326231       0.00000000
