10
Lattice="16.290000149 0.0 0.0 0.0 16.290000149 0.0 0.0 0.0 29.1751946751" Properties=species:S:1:pos:R:3:initial_magmoms:R:1 pbc="T T T"
Si       1.47130325      -1.29625689       1.26398613       0.00000000
Si      -1.39802410      -1.42002375      -1.25920140       0.00000000
Si      -1.22947147       1.43450556       1.41963580       0.00000000
Si       1.38342826       1.33230210      -1.38541329       0.00000000
Si       0.15786639      -2.62711276       2.63201101       0.00000000
Si      -2.58356144       2.72459212      -0.02430294       0.00000000
Si      -2.65790900      -0.03407868      -2.69660489       0.00000000
Si       0.03119535      -2.70297529      -2.67297299       0.00000000
Si       2.69775760       0.06433898       2.71113414       0.00000000
Si       2.75812671       2.69481400      -0.04883928       0.00000000
