10
Lattice="16.290000149 0.0 0.0 0.0 16.290000149 0.0 0.0 0.0 29.1751946751" Properties=species:S:1:pos:R:3:initial_magmoms:R:1 pbc="T T T"
Si       1.36008469      -1.35736426      -1.33946236       0.00000000
Si       1.37287234       1.34762284       1.34310926       0.00000000
Si      -1.34434855      -1.35506900       1.36592426       0.00000000
Si      -1.32963868       1.37021707      -1.37251786       0.00000000
Si       0.00169416       2.70399341       2.67626978       0.00000000
Si       2.70883154       0.01627371      -2.67670741       0.00000000
Si       0.04570974      -2.70350471       2.69861798       0.00000000
Si       0.00451233      -2.72890083      -2.67804947       0.00000000
Si      -2.68858307       2.72572427      -0.01838037       0.00000000
Si      -2.70097976      -2.71756298       0.01546285       0.00000000
