10
Lattice="16.290000149 0.0 0.0 0.0 16.290000149 0.0 0.0 0.0 29.1751946751" Properties=species:S:1:pos:R:3:initial_magmoms:R:1 pbc="T T T"
Si      -1.33688773      -1.33273378      -1.41135004       0.00000000
Si      -1.38201103       1.36115983       1.35378738       0.00000000
Si       1.36016614       1.34063443      -1.39752100       0.00000000
Si       1.39175034      -1.35742942       1.35063646       0.00000000
Si       0.05413167       2.70088202       2.65762683       0.00000000
Si      -2.67786425      -2.69131979      -0.04872258       0.00000000
Si      -2.71448417       2.66597255      -0.09826206       0.00000000
Si       2.66382390      -2.72109791      -0.07325891       0.00000000
Si      -2.71627607      -0.04663827       2.69182016       0.00000000
Si       2.76990113       0.04823469       2.65056644       0.00000000
