10
Lattice="16.290000149 0.0 0.0 0.0 16.290000149 0.0 0.0 0.0 29.1751946751" Properties=species:S:1:pos:R:3:initial_magmoms:R:1 pbc="T T T"
Si       0.45962235      -0.42438708       2.21273429       0.00000000
Si       1.82793350       1.29287215      -0.63765305       0.00000000
Si      -1.64783126       1.65745865      -0.09592804       0.00000000
Si      -0.66121111      -1.87276358      -1.30074688       0.00000000
H        1.81597664       0.15299568       2.48940266       0.00000000
Si       0.79560361       2.12203316      -2.59084481       0.00000000
Si      -2.08336559      -0.65127421      -2.67469432       0.00000000
Si      -3.41787009       0.65928889      -1.25246193       0.00000000
Si      -0.73440208       3.38589282      -1.37867382       0.00000000
Si       3.64777086      -0.16702137      -0.80170517       0.00000000
