10
Lattice="16.290000149 0.0 0.0 0.0 16.290000149 0.0 0.0 0.0 29.1751946751" Properties=species:S:1:pos:R:3:initial_magmoms:R:1 pbc="T T T"
Si       1.34855137       1.34017831       1.31603468       0.00000000
Si      -1.30960198       1.42830721      -1.29546617       0.00000000
Si       1.43894458      -1.33545421      -1.27784435       0.00000000
Si      -1.37687968      -1.25193538       1.42660867       0.00000000
Si      -2.66206295       0.04122999      -2.61570208       0.00000000
Si       0.06952572      -2.69316056      -2.60519901       0.00000000
Si      -0.02862153      -2.61057026       2.73021472       0.00000000
Si      -2.68882742      -2.68514588       0.11255790       0.00000000
Si      -2.60796386       2.78640453       0.12139798       0.00000000
Si       0.06646320       2.75851605      -2.64939943       0.00000000
