10
Lattice="16.290000149 0.0 0.0 0.0 16.290000149 0.0 0.0 0.0 29.1751946751" Properties=species:S:1:pos:R:3:initial_magmoms:R:1 pbc="T T T"
Si      -1.32467023      -1.33660885      -1.33732674       0.00000000
Si       1.31694405      -1.43532983       1.27580209       0.00000000
Si      -1.44272386       1.33170588       1.28271661       0.00000000
Si       1.29911966       1.29055734      -1.47217449       0.00000000
Si       2.63104842      -0.05139658       2.63959656       0.00000000
Si      -0.07398918       2.68042016       2.62066186       0.00000000
Si      -2.74190025       0.00620649      -2.59167047       0.00000000
Si       2.66158403       2.68560038      -0.15407420       0.00000000
Si      -0.15097572       2.67530510      -2.69880762       0.00000000
Si      -0.08143371      -2.76996954       2.61059642       0.00000000
