10
Lattice="16.290000149 0.0 0.0 0.0 16.290000149 0.0 0.0 0.0 29.1751946751" Properties=species:S:1:pos:R:3:initial_magmoms:R:1 pbc="T T T"
Si      -1.36360333      -1.34969167       1.34993626       0.00000000
Si      -1.39005829       1.34843571      -1.33269372       0.00000000
Si       1.32010903      -1.36862065      -1.38348773       0.00000000
Si       1.36119241       1.34318708       1.37727341       0.00000000
Si      -0.06488307       2.70457985       2.67594886       0.00000000
Si       0.00959481      -2.70264134       2.69473768       0.00000000
Si       2.68947902      -2.71103069      -0.03034220       0.00000000
Si      -0.04570974       2.70350471      -2.69861798       0.00000000
Si       2.69633711       2.70682787       0.00796483       0.00000000
Si       2.69702129      -0.01309716      -2.71577300       0.00000000
