10
Lattice="16.290000149 0.0 0.0 0.0 16.290000149 0.0 0.0 0.0 29.1751946751" Properties=species:S:1:pos:R:3:initial_magmoms:R:1 pbc="T T T"
Si      -1.31694405       1.43532983      -1.27580209       0.00000000
Si       1.31410438       1.38393325       1.36379448       0.00000000
Si      -1.39837776      -1.33463971       1.33479433       0.00000000
Si       1.28140709      -1.34517934      -1.45636737       0.00000000
Si      -2.64161428       0.09872098      -2.61312883       0.00000000
Si       2.64711346      -2.69311169      -0.08428714       0.00000000
Si      -0.02994967      -2.69133608       2.67577380       0.00000000
Si       2.65980337       0.02306664       2.71947825       0.00000000
Si       2.69339335       0.04525362      -2.71306262       0.00000000
Si       2.63859379       2.76765474       0.00192556       0.00000000
