10
Lattice="16.290000149 0.0 0.0 0.0 16.290000149 0.0 0.0 0.0 29.1751946751" Properties=species:S:1:pos:R:3:initial_magmoms:R:1 pbc="T T T"
Si      -1.35159760      -1.01475298       1.63436523       0.00000000
Si      -1.35408997       1.29008656      -1.44393873       0.00000000
Si       1.22947147      -1.43450556      -1.41963580       0.00000000
Si       1.41152851       1.28347282       1.41528869       0.00000000
Si       0.08228079      -2.65029050       2.55306294       0.00000000
Si      -0.06968862       2.56398086       2.72400040       0.00000000
Si       2.71552462       2.62397693      -0.04457970       0.00000000
Si      -2.73856080       2.64262898      -0.12822498       0.00000000
Si      -1.46437327       0.72586612       3.44171019       0.00000000
Si       2.61289973      -0.10220346      -2.80504909       0.00000000
