10
Lattice="16.290000149 0.0 0.0 0.0 16.290000149 0.0 0.0 0.0 29.1751946751" Properties=species:S:1:pos:R:3:initial_magmoms:R:1 pbc="T T T"
Si      -1.46479193       1.21365388       1.33698247       0.00000000
Si       1.17207040       1.52832781      -1.32245322       0.00000000
Si      -0.21942793      -1.85523554      -1.43101412       0.00000000
Si       1.44005719      -1.18719892       1.44201317       0.00000000
H       -2.93307480      -1.26967519      -1.44283008       0.00000000
Si       2.08352849      -2.03217752      -2.03759560       0.00000000
Si      -2.61400257      -0.41914170       2.52811814       0.00000000
Si       2.53072157       0.17717004      -2.64928273       0.00000000
Si       3.16112829      -1.94615003       0.06141378       0.00000000
Si      -0.00655184       2.59654457       2.68464306       0.00000000
