10
Lattice="16.290000149 0.0 0.0 0.0 16.290000149 0.0 0.0 0.0 29.1751946751" Properties=species:S:1:pos:R:3:initial_magmoms:R:1 pbc="T T T"
Si       1.39802410       1.42002375       1.25920140       0.00000000
Si      -1.25988490       1.38594507      -1.43740349       0.00000000
Si       1.42921945      -1.28295154      -1.41377158       0.00000000
Si      -1.29785689      -1.59192397       1.27361395       0.00000000
Si      -2.52644870      -2.72823293      -0.35407016       0.00000000
Si       0.28154007      -2.67494834       2.59659233       0.00000000
Si      -2.58712895       2.77641876      -0.07527200       0.00000000
Si       2.86932735       0.12376686       2.52318754       0.00000000
Si      -2.56793933       0.07364709      -2.88320944       0.00000000
Si       2.86753224      -2.63422334      -0.12851673       0.00000000
