10
Lattice="16.290000149 0.0 0.0 0.0 16.290000149 0.0 0.0 0.0 29.1751946751" Properties=species:S:1:pos:R:3:initial_magmoms:R:1 pbc="T T T"
Si       1.31212693       1.36145305      -1.38051186       0.00000000
Si      -1.37880190       1.48144519       1.21786015       0.00000000
Si       1.57933180      -1.31535235       1.21873541       0.00000000
Si      -1.49312512      -1.34148151      -1.30509398       0.00000000
Si      -1.68459779      -2.38778822       2.11616440       0.00000000
Si      -2.21504906      -0.00636939       2.85423847       0.00000000
Si       3.42741603       0.15196941       1.38987710       0.00000000
Si       2.36359757      -0.10274103      -2.86984720       0.00000000
Si       3.10609578       2.10976679       0.02538242       0.00000000
H        2.07021467       1.00839988       2.99810136       0.00000000
