10
Lattice="16.290000149 0.0 0.0 0.0 16.290000149 0.0 0.0 0.0 29.1751946751" Properties=species:S:1:pos:R:3:initial_magmoms:R:1 pbc="T T T"
Si       1.35246097       1.38707722       1.32023591       0.00000000
Si      -1.33835383       1.35927019      -1.36329850       0.00000000
Si       1.38893428      -1.35091342      -1.33321887       0.00000000
Si      -1.35238767      -1.36484137       1.36332767       0.00000000
Si       2.66206295      -0.04122999       2.61570208       0.00000000
Si      -2.66577707       2.70831026       0.03226777       0.00000000
Si       0.04131144      -2.71265969      -2.68414709       0.00000000
Si      -2.69027723       0.00648342      -2.72452555       0.00000000
Si      -2.69250896      -2.72616410       0.00848998       0.00000000
Si       0.02057427       2.71107956      -2.72569256       0.00000000
