10
Lattice="16.290000149 0.0 0.0 0.0 16.290000149 0.0 0.0 0.0 29.1751946751" Properties=species:S:1:pos:R:3:initial_magmoms:R:1 pbc="T T T"
Si      -1.75009988      -0.32717488       1.48831421       0.00000000
Si       0.11547981      -2.30805030      -0.23208867       0.00000000
Si      -0.98505631       0.85244756      -1.99181972       0.00000000
Si       1.82834075       1.19897496       1.01097885       0.00000000
H       -0.41987475       2.63488961       1.46789157       0.00000000
Si      -2.50843196       2.16984268      -0.80202610       0.00000000
Si       1.71352883      -2.23272534      -2.02860964       0.00000000
Si      -1.06748371       3.49749398       0.40932798       0.00000000
Si       0.40063626      -3.20815426       2.00602804       0.00000000
Si      -3.66894786       0.73124833       0.70738177       0.00000000
