10
Lattice="16.290000149 0.0 0.0 0.0 16.290000149 0.0 0.0 0.0 29.1751946751" Properties=species:S:1:pos:R:3:initial_magmoms:R:1 pbc="T T T"
Si      -1.34569899       1.36086661      -1.35568377       0.00000000
Si       1.35663121       1.36249398       1.35046141       0.00000000
Si      -1.37591694      -1.34772058       1.35084069       0.00000000
Si       1.31792617      -1.37041255      -1.38914772       0.00000000
Si       0.01334151      -2.69672807       2.68058771       0.00000000
Si      -2.65980337      -0.02306664      -2.71947825       0.00000000
Si       2.70549209      -0.01133784      -2.69351232       0.00000000
Si      -0.02783961       2.71723718       2.68490564       0.00000000
Si      -2.68975304      -2.71440272      -0.04370444       0.00000000
Si       2.70027929      -2.71619462      -0.05318638       0.00000000
