10
Lattice="10.86 0.0 0.0 0.0 10.86 0.0 0.0 0.0 10.86" Properties=species:S:1:pos:R:3:initial_magmoms:R:1 pbc="T T T"
Si      -1.21946940      -1.40490390      -1.41668700       0.00000000
Si       1.49553060      -1.40490390       1.29831300       0.00000000
Si       1.49553060       1.31009610      -1.41668700       0.00000000
Si      -2.43510522       2.62133250       0.04084446       0.00000000
Si       0.01916790       2.67887964       2.52200694       0.00000000
Si      -2.57696940      -2.76240390      -0.05918700       0.00000000
Si      -2.57696940      -0.04740390      -2.77418700       0.00000000
Si      -2.60719278      -0.23326194       2.74118346       0.00000000
Si       0.13803060      -2.76240390       2.65581300       0.00000000
Si       0.13803060       2.66759610      -2.77418700       0.00000000
