10
Lattice="10.86 0.0 0.0 0.0 10.86 0.0 0.0 0.0 10.86" Properties=species:S:1:pos:R:3:initial_magmoms:R:1 pbc="T T T"
Si       1.47636270       1.34621646      -1.22369394       0.00000000
Si      -1.23863730       1.34621646       1.49130606       0.00000000
Si       1.47636270      -1.36878354       1.49130606       0.00000000
Si      -2.45427312      -0.05754714      -2.48116248       0.00000000
Si      -0.01916790      -2.67887964      -2.52200694       0.00000000
Si       0.11886270       2.70371646      -2.58119394       0.00000000
Si      -2.59613730       2.70371646       0.13380606       0.00000000
Si       2.83386270      -0.01128354      -2.58119394       0.00000000
Si      -2.59613730      -0.01128354       2.84880606       0.00000000
Si       2.83386270       2.70371646       0.13380606       0.00000000
