10
Lattice="16.28999089631971 0.0 0.0 0.0 16.28999089631971 0.0 0.0 0.0 34.40246978574605" Properties=species:S:1:pos:R:3:initial_magmoms:R:1 pbc="T T T"
Si       1.33841442       1.34887716       1.36880623       0.00000000
Si      -1.27865457       1.41315750      -1.37861094       0.00000000
Si      -1.37769777      -1.36617877       1.36543479       0.00000000
Si       1.41105642      -1.25561528      -1.51287354       0.00000000
Si      -2.08593810      -0.49731741      -2.64707165       0.00000000
Si      -0.38299779      -2.36729375      -2.69520937       0.00000000
Si       2.69694340      -2.70147838      -0.00871071       0.00000000
Si       0.23815198       2.78286957      -2.60269622       0.00000000
Si       2.72118292       2.69923671       0.01653384       0.00000000
Si       2.69914255      -0.00386073       2.72667247       0.00000000
