10
Lattice="16.28999089631971 0.0 0.0 0.0 16.28999089631971 0.0 0.0 0.0 34.40246978574605" Properties=species:S:1:pos:R:3:initial_magmoms:R:1 pbc="T T T"
Si       1.35298224      -1.35782037      -1.35786624       0.00000000
Si       1.33491663       1.35814617       1.37751006       0.00000000
Si      -1.36043980       1.35870003      -1.35800385       0.00000000
Si      -1.35189244      -1.35606431       1.39557137       0.00000000
Si      -2.63661225       0.20971746       2.70245312       0.00000000
Si       2.71368594      -2.71212929       0.00282100       0.00000000
Si       2.71231758       0.00045612      -2.71518204       0.00000000
Si      -0.00302994      -2.71381809      -2.71514764       0.00000000
Si       2.71292031       2.71674846      -0.00048163       0.00000000
Si      -2.71399892      -2.71692726       0.00533239       0.00000000
