10
Lattice="16.28999089631971 0.0 0.0 0.0 16.28999089631971 0.0 0.0 0.0 34.40246978574605" Properties=species:S:1:pos:R:3:initial_magmoms:R:1 pbc="T T T"
Si       1.32393717       1.35109700       1.36078701       0.00000000
Si      -1.22386770       1.39087066      -1.43935886       0.00000000
Si      -1.39246920      -1.35830046       1.35672752       0.00000000
Si       1.38158748      -1.33793796      -1.42547401       0.00000000
Si      -2.11406733      -0.47344395      -2.65263213       0.00000000
Si      -0.43829874      -2.18874837      -2.67736235       0.00000000
Si       2.66191632      -2.70841566       0.01585611       0.00000000
Si       2.68493409      -0.00161580       2.71865325       0.00000000
Si      -2.72710890       2.68032353       0.00653647       0.00000000
Si       2.69343747       2.71743215      -0.02738782       0.00000000
