10
Lattice="16.28999089631971 0.0 0.0 0.0 16.28999089631971 0.0 0.0 0.0 34.40246978574605" Properties=species:S:1:pos:R:3:initial_magmoms:R:1 pbc="T T T"
Si       1.04762619       1.52055258      -1.46994955       0.00000000
Si      -1.50884496      -1.29390815      -1.46210578       0.00000000
Si      -0.97867062       0.94131276       2.12676187       0.00000000
Si       1.98461070      -2.81972962      -0.03725790       0.00000000
Si      -2.58317046      -2.28253429       0.48645119       0.00000000
Si      -3.04673173      -0.21548738       1.79550030       0.00000000
Si      -0.64052280      -3.48765220       1.31850979       0.00000000
Si       1.91661624       3.29428923       0.05070927       0.00000000
Si       2.50222545       0.06437319      -3.01008018       0.00000000
Si      -0.22382460      -2.65661785      -3.03973512       0.00000000
