10
Lattice="16.28999089631971 0.0 0.0 0.0 16.28999089631971 0.0 0.0 0.0 34.40246978574605" Properties=species:S:1:pos:R:3:initial_magmoms:R:1 pbc="T T T"
Si      -1.42725879      -0.81378487       1.67736216       0.00000000
Si       2.06806111       1.15680014       0.33126157       0.00000000
Si      -1.66489731       1.69780733      -0.41750861       0.00000000
Si       0.46356127      -2.06704692      -1.30904911       0.00000000
Si       3.04673173       0.21548738      -1.79550030       0.00000000
Si      -0.00908168      -2.44328076       2.67307340       0.00000000
Si       1.53788677      -1.07842077      -3.25760609       0.00000000
Si       1.26012598       3.50500364       0.59007149       0.00000000
Si      -2.67262929      -2.71362960       0.56619616       0.00000000
Si      -2.99025171       1.01595680      -2.26296132       0.00000000
