10
Lattice="16.28999089631971 0.0 0.0 0.0 16.28999089631971 0.0 0.0 0.0 34.40246978574605" Properties=species:S:1:pos:R:3:initial_magmoms:R:1 pbc="T T T"
Si      -1.44173016       1.61634267       0.82070578       0.00000000
Si      -1.74407256      -0.94947894      -1.23597822       0.00000000
Si       0.96949935       1.72486665      -1.33533261       0.00000000
Si       1.77165153      -1.81806174       0.44843644       0.00000000
Si      -0.41532984       1.74830796       2.86552092       0.00000000
Si      -0.37607094      -2.34163863      -2.64310883       0.00000000
Si       2.35074474       0.37810719      -2.67489673       0.00000000
Si       3.48179202      -0.92305656      -1.08911400       0.00000000
Si      -1.93157046      -1.82283471       2.78329897       0.00000000
Si       0.90266148      -3.59179839      -1.07222238       0.00000000
