10
Lattice="16.28999089631971 0.0 0.0 0.0 16.28999089631971 0.0 0.0 0.0 34.40246978574605" Properties=species:S:1:pos:R:3:initial_magmoms:R:1 pbc="T T T"
Si       0.44833338       1.60345728      -1.61382076       0.00000000
Si       1.00758537      -1.93490991      -0.86529140       0.00000000
Si       1.29986055       0.48979143       1.92543851       0.00000000
Si      -2.34334908      -0.23418504       0.36501041       0.00000000
Si      -2.61755865      -2.45767230      -0.45934203       0.00000000
Si       0.00731421       3.63584655      -0.50561338       0.00000000
Si       1.18161144      -1.68964767       3.11373488       0.00000000
Si       3.11415930      -2.04602400       0.31980554       0.00000000
Si      -1.21013523      -1.43783685       3.42325407       0.00000000
Si       0.47486979      -2.20229397      -3.22213712       0.00000000
