10
Lattice="16.28999089631971 0.0 0.0 0.0 16.28999089631971 0.0 0.0 0.0 34.40246978574605" Properties=species:S:1:pos:R:3:initial_magmoms:R:1 pbc="T T T"
Si       0.66354057       2.17658835       0.62519643       0.00000000
Si       1.77852591      -1.46277684       0.64466824       0.00000000
Si       0.64531206      -0.25912503      -2.41357542       0.00000000
Si      -1.89402201      -0.96572007       1.44930806       0.00000000
Si       1.91562255      -0.88026273       2.91002161       0.00000000
Si       0.57596553      -3.49075152       0.79603919       0.00000000
Si      -1.15626420       2.52376083       2.48816002       0.00000000
Si      -1.18275174       0.87320916      -3.48799956       0.00000000
Si       0.24035895       3.62732688      -1.22902892       0.00000000
Si      -2.50744151      -2.39505354      -1.71341597       0.00000000
