10
Lattice="16.28999089631971 0.0 0.0 0.0 16.28999089631971 0.0 0.0 0.0 34.40246978574605" Properties=species:S:1:pos:R:3:initial_magmoms:R:1 pbc="T T T"
Si       1.34104167      -1.37813400       1.32263809       0.00000000
Si       1.37759643       1.33731126      -1.36144410       0.00000000
Si      -1.34571690      -1.37121075      -1.36388668       0.00000000
Si      -1.26830682       1.47294180       1.40245187       0.00000000
Si       2.87896428       0.06063138       2.44216389       0.00000000
Si      -2.68454802       0.12139308       2.67503434       0.00000000
Si      -2.70202556      -2.71168227       0.00990792       0.00000000
Si       0.01573614       2.70053991      -2.71865669       0.00000000
Si      -2.70054643      -0.01394424      -2.72343864       0.00000000
Si      -2.71559350       2.71011843       0.01544672       0.00000000
