10
Lattice="16.28999089631971 0.0 0.0 0.0 16.28999089631971 0.0 0.0 0.0 34.40246978574605" Properties=species:S:1:pos:R:3:initial_magmoms:R:1 pbc="T T T"
Si      -1.35482301       1.35712205       1.36209775       0.00000000
Si       1.36195803      -1.35891180       1.36120328       0.00000000
Si      -1.35301482      -1.37248137      -1.36855165       0.00000000
Si       1.39246920       1.35830046      -1.35672752       0.00000000
Si      -2.71143792       2.71219445       0.00485075       0.00000000
Si       2.71640637       2.70939745       0.00405949       0.00000000
Si      -2.70980892      -2.71663443       0.00571081       0.00000000
Si      -2.71160082      -0.00221544       2.71896632       0.00000000
Si       0.00293220       2.71280369       2.71910393       0.00000000
Si       2.71863810      -2.71497285       0.00127289       0.00000000
