10
Lattice="16.28999089631971 0.0 0.0 0.0 16.28999089631971 0.0 0.0 0.0 34.40246978574605" Properties=species:S:1:pos:R:3:initial_magmoms:R:1 pbc="T T T"
Si      -0.96295077      -1.33537275      -1.67178895       0.00000000
Si       1.06266186      -1.73622078       1.44425089       0.00000000
Si       1.77482808       1.33739271      -1.53514227       0.00000000
Si      -2.62513350      -0.66792258       1.35576769       0.00000000
Si      -2.13218181      -2.61324180       0.01032075       0.00000000
Si      -1.98461070       2.81972962       0.03725790       0.00000000
Si      -2.20843530       0.16311177      -3.00247723       0.00000000
Si       3.32034183       1.72740693       0.35802670       0.00000000
Si      -0.28966878      -3.72291660       1.02024021       0.00000000
Si       0.53307396      -2.55391362      -3.02102017       0.00000000
