10
Lattice="16.28999089631971 0.0 0.0 0.0 16.28999089631971 0.0 0.0 0.0 34.40246978574605" Properties=species:S:1:pos:R:3:initial_magmoms:R:1 pbc="T T T"
Si       0.05217687       2.30433453       0.55928126       0.00000000
Si       2.10352770      -1.01920014       0.50561338       0.00000000
Si      -1.71040113      -1.20122460       1.24736545       0.00000000
Si       0.19671804      -0.04473234      -2.46720890       0.00000000
Si       1.36021500       1.97871372       2.51403069       0.00000000
Si       3.12583923       0.94032396       1.36044643       0.00000000
Si      -2.24191125       2.67268401       1.01683437       0.00000000
Si       0.65309868      -0.02363679       3.64146906       0.00000000
Si       1.77171669      -1.93381848       2.61844224       0.00000000
Si      -1.15561260      -2.03142816      -2.89121958       0.00000000
