10
Lattice="16.28999089631971 0.0 0.0 0.0 16.28999089631971 0.0 0.0 0.0 34.40246978574605" Properties=species:S:1:pos:R:3:initial_magmoms:R:1 pbc="T T T"
Si      -1.35744570       1.35761398      -1.35717819       0.00000000
Si       1.35793440      -1.35694903      -1.35738461       0.00000000
Si      -1.35633798      -1.35823594       1.35769423       0.00000000
Si       1.35814617       1.35727678       1.35783184       0.00000000
Si      -0.00268785      -2.70983353       2.71277387       0.00000000
Si      -2.71440270      -2.71410151      -0.00003440       0.00000000
Si       0.00158013      -2.71410151      -2.71507884       0.00000000
Si       2.71551042       0.00095614       2.71380594       0.00000000
Si      -2.71520091       0.00193234      -2.71418437       0.00000000
Si       2.71552671      -2.71387345      -0.00037843       0.00000000
