10
Lattice="16.28999089631971 0.0 0.0 0.0 16.28999089631971 0.0 0.0 0.0 34.40246978574605" Properties=species:S:1:pos:R:3:initial_magmoms:R:1 pbc="T T T"
Si       0.04274496      -2.27731756       0.31443875       0.00000000
Si       1.40592474       0.35158707      -1.81046539       0.00000000
Si      -0.15135039       1.55475018       1.83994832       0.00000000
Si       2.19805857       1.66604346       1.81239193       0.00000000
Si       3.09975894       1.21287195      -0.42053603       0.00000000
Si      -1.50276879      -2.66733179      -1.57873022       0.00000000
Si      -0.07007958       1.62386865      -3.05607631       0.00000000
Si      -0.70279947      -2.30826368       2.68886414       0.00000000
Si      -0.95752620      -0.05569551       3.50977633       0.00000000
Si      -1.63545084       3.00429954      -1.49317123       0.00000000
