10
Lattice="16.28999089631971 0.0 0.0 0.0 16.28999089631971 0.0 0.0 0.0 34.40246978574605" Properties=species:S:1:pos:R:3:initial_magmoms:R:1 pbc="T T T"
Si       1.47668850      -0.20580786       1.88921268       0.00000000
Si       0.25472673      -2.25256817      -0.82091219       0.00000000
Si      -2.20416732       0.51543189       0.89828339       0.00000000
Si       0.80617581       1.61044569      -1.66982801       0.00000000
Si      -2.34756819       2.38897737      -0.78073009       0.00000000
Si      -0.30799503       3.49477515      -0.37557197       0.00000000
Si       0.95752620       0.05569551      -3.50977633       0.00000000
Si      -1.40194998      -3.33618290       0.91737677       0.00000000
Si       2.84830650       1.69572384       1.73822016       0.00000000
Si      -1.95165603       0.72099540       3.26823646       0.00000000
