10
Lattice="16.28999089631971 0.0 0.0 0.0 16.28999089631971 0.0 0.0 0.0 34.40246978574605" Properties=species:S:1:pos:R:3:initial_magmoms:R:1 pbc="T T T"
Si       2.09888505       0.72772806      -0.69265971       0.00000000
Si      -0.96443316      -0.62770487      -2.03941395       0.00000000
Si      -1.41876126       1.34434854       1.29910679       0.00000000
Si       0.21014100      -2.12850257       1.05557157       0.00000000
Si      -3.18990780      -0.61164293      -1.45942239       0.00000000
Si      -3.41532882       1.00208261       0.26562162       0.00000000
Si       3.45517416      -0.42069155       0.86205757       0.00000000
Si       2.23179516      -0.37029029      -2.78419344       0.00000000
Si      -1.24506099       0.33197554       3.40629364       0.00000000
Si      -0.79891047       3.55285389       0.75516904       0.00000000
