10
Lattice="16.28999089631971 0.0 0.0 0.0 16.28999089631971 0.0 0.0 0.0 34.40246978574605" Properties=species:S:1:pos:R:3:initial_magmoms:R:1 pbc="T T T"
Si      -2.39174667       0.25181082       0.30951919       0.00000000
Si       1.12181085      -1.87336629      -1.08034136       0.00000000
Si       0.11824911       2.17943910      -1.18829637       0.00000000
Si      -0.33363549      -0.71759079       2.46339680       0.00000000
Si       1.93254786      -0.35637633      -2.79392934       0.00000000
Si       3.14885700       0.91041552      -1.17801003       0.00000000
Si      -2.25465003       0.83432493       2.57487256       0.00000000
Si       2.07997236       1.96520931       2.19343389       0.00000000
Si      -1.18161144       1.68964767      -3.11373488       0.00000000
Si      -0.62017659      -3.46614059      -1.32790167       0.00000000
