10
Lattice="16.28999089631971 0.0 0.0 0.0 16.28999089631971 0.0 0.0 0.0 34.40246978574605" Properties=species:S:1:pos:R:3:initial_magmoms:R:1 pbc="T T T"
Si      -1.34050410      -1.36265850      -1.39006697       0.00000000
Si       1.37090124       1.35395964      -1.38573226       0.00000000
Si       1.44591669      -1.30399821       1.41693531       0.00000000
Si      -1.56828717       1.30831506       1.49898525       0.00000000
Si      -2.67845067       2.71922454      -0.03330161       0.00000000
Si      -0.23998428       1.70004069       3.41602955       0.00000000
Si      -2.72264544      -2.68449426      -0.02215520       0.00000000
Si       2.71808424      -2.69470809      -0.04589292       0.00000000
Si       2.73631275       2.70260874      -0.01678841       0.00000000
Si      -2.69338860      -0.00588069      -2.74831164       0.00000000
