10
Lattice="16.28999089631971 0.0 0.0 0.0 16.28999089631971 0.0 0.0 0.0 34.40246978574605" Properties=species:S:1:pos:R:3:initial_magmoms:R:1 pbc="T T T"
Si      -0.14002884       0.38320596       2.42245126       0.00000000
Si       2.10134484       0.48915612      -1.18530336       0.00000000
Si      -0.61838469      -2.12322231      -1.14353873       0.00000000
Si      -1.59275475       1.96346628      -0.27023155       0.00000000
Si      -1.74943197      -0.82205856      -2.72932147       0.00000000
Si       0.99118134       1.90006560      -2.71759022       0.00000000
Si      -3.13067736       0.52470090      -1.38975735       0.00000000
Si       2.13110667       1.11428487       2.67345182       0.00000000
Si       3.42964773       0.88088175       0.73174094       0.00000000
Si      -0.13776453       3.42925677      -1.36756774       0.00000000
