10
Lattice="16.28999089631971 0.0 0.0 0.0 16.28999089631971 0.0 0.0 0.0 34.40246978574605" Properties=species:S:1:pos:R:3:initial_magmoms:R:1 pbc="T T T"
Si      -0.10842624      -2.07164817       1.06138559       0.00000000
Si       2.27113551       0.73107891       0.25100056       0.00000000
Si       0.14002884      -0.38320596      -2.42245126       0.00000000
Si      -2.19256884       1.24704837       0.58140206       0.00000000
Si      -1.45272591       1.58026032      -2.69268281       0.00000000
Si       3.18880008      -0.87798213       1.76718706       0.00000000
Si       1.44029664      -2.04739236       2.84811326       0.00000000
Si      -2.14799940      -3.17744595       0.65622748       0.00000000
Si       3.56967657       0.49767579      -1.69071032       0.00000000
Si      -2.41017066       3.05162199      -1.09616651       0.00000000
