10
Lattice="16.28999089631971 0.0 0.0 0.0 16.28999089631971 0.0 0.0 0.0 34.40246978574605" Properties=species:S:1:pos:R:3:initial_magmoms:R:1 pbc="T T T"
Si       1.29681432      -0.58399650       1.87682779       0.00000000
Si      -1.99897848      -1.30087053       0.35338237       0.00000000
Si       1.34327340      -0.84593970      -1.83406549       0.00000000
Si      -0.81026460       2.29482117      -0.04723462       0.00000000
Si       3.54621897      -0.15770349       1.12595906       0.00000000
Si      -0.20544948      -0.87019551      -3.62079316       0.00000000
Si      -1.63115028       2.56393197       2.20021118       0.00000000
Si       1.06109802      -2.91994992       2.38777355       0.00000000
Si      -2.36182194      -1.59635484       2.71889751       0.00000000
Si      -3.92075865      -0.52185015      -0.91125313       0.00000000
