10
Lattice="16.28999089631971 0.0 0.0 0.0 16.28999089631971 0.0 0.0 0.0 34.40246978574605" Properties=species:S:1:pos:R:3:initial_magmoms:R:1 pbc="T T T"
Si      -1.33478631      -1.36205577      -1.35179076       0.00000000
Si       1.35832536      -1.35081567       1.35817586       0.00000000
Si      -1.35870003       1.36334268       1.35735020       0.00000000
Si       1.36125756       1.36508571      -1.38029322       0.00000000
Si      -2.48786582       0.13857903      -2.69144089       0.00000000
Si      -0.00107514      -2.71018359       2.71545726       0.00000000
Si       2.71502172      -2.71135647      -0.00220176       0.00000000
Si       2.71397916       0.00465894       2.71573248       0.00000000
Si      -2.71755482      -2.71241532       0.00048163       0.00000000
Si       2.71375110       2.71730232      -0.00216736       0.00000000
