10
Lattice="16.28999089631971 0.0 0.0 0.0 16.28999089631971 0.0 0.0 0.0 34.40246978574605" Properties=species:S:1:pos:R:3:initial_magmoms:R:1 pbc="T T T"
Si      -0.74233530      -1.66754214       1.53276303       0.00000000
Si       1.74858489       0.79144965       1.43186741       0.00000000
Si      -1.84881726       1.75187547       0.07018108       0.00000000
Si      -2.07997236      -1.96520931      -2.19343389       0.00000000
Si      -2.41360785      -2.68280010       0.26996291       0.00000000
Si       0.47656395       2.19170547       2.86159357       0.00000000
Si       1.06888464      -1.05479379      -3.37144392       0.00000000
Si      -2.23365222      -0.53116803       2.90071608       0.00000000
Si       0.27965043       1.10708469      -3.62079316       0.00000000
Si      -3.52292427       0.81316422       1.48418672       0.00000000
