10
Lattice="16.28999089631971 0.0 0.0 0.0 16.28999089631971 0.0 0.0 0.0 34.40246978574605" Properties=species:S:1:pos:R:3:initial_magmoms:R:1 pbc="T T T"
Si      -1.35635427      -1.35715248      -1.35769423       0.00000000
Si       1.35759231      -1.35692442       1.35700618       0.00000000
Si      -1.35793440       1.35694903       1.35738461       0.00000000
Si       1.35909099       1.35844397      -1.35697178       0.00000000
Si      -0.00190593       2.71115677      -2.71483802       0.00000000
Si       2.71471221      -0.00203625       2.71301469       0.00000000
Si       2.71370223       0.00428427      -2.71476921       0.00000000
Si      -2.71427238      -0.00128691       2.71507884       0.00000000
Si       0.00021177       2.71422581       2.71521645       0.00000000
Si       2.71461447      -2.71490769       0.00037843       0.00000000
