10
Lattice="16.28999089631971 0.0 0.0 0.0 16.28999089631971 0.0 0.0 0.0 34.40246978574605" Properties=species:S:1:pos:R:3:initial_magmoms:R:1 pbc="T T T"
Si      -1.29992571       1.31663925      -1.39708508       0.00000000
Si       1.05938757       1.66017906       1.33908248       0.00000000
Si       1.44234918      -1.40245497      -1.36770535       0.00000000
Si      -1.23626439      -1.23134481       1.72683294       0.00000000
Si      -2.39101362      -2.57810427      -0.04197104       0.00000000
Si       0.89342505      -1.63018917       3.07107579       0.00000000
Si      -1.19343798       2.87779044       1.98966795       0.00000000
Si      -2.73895173       2.48777622       0.09649898       0.00000000
Si      -2.64015288      -0.04150692      -2.75230233       0.00000000
Si       0.07804539       2.66928275      -2.75127025       0.00000000
