10
Lattice="16.28999089631971 0.0 0.0 0.0 16.28999089631971 0.0 0.0 0.0 34.40246978574605" Properties=species:S:1:pos:R:3:initial_magmoms:R:1 pbc="T T T"
Si       1.76562423      -1.03838976      -1.15358426       0.00000000
Si      -1.30803813       0.32562081      -1.95474943       0.00000000
Si       0.58409424       1.54325663       1.72387432       0.00000000
Si      -0.70711632      -2.00235051       1.12743837       0.00000000
Si      -1.36021500      -1.97871372      -2.51403069       0.00000000
Si       0.15447807      -1.42356681       3.23569170       0.00000000
Si       3.23327178      -1.62334737       0.57517521       0.00000000
Si       0.74331270      -2.99791386      -2.00841731       0.00000000
Si      -0.53796096       0.81204021       3.60200940       0.00000000
Si       0.34135695       3.72862529       0.99491998       0.00000000
