10
Lattice="16.28999089631971 0.0 0.0 0.0 16.28999089631971 0.0 0.0 0.0 34.40246978574605" Properties=species:S:1:pos:R:3:initial_magmoms:R:1 pbc="T T T"
Si      -0.51714234      -2.27906874       0.01049276       0.00000000
Si      -1.46764755       0.58495761      -1.72875948       0.00000000
Si      -0.71218251       0.36201267       2.24359272       0.00000000
Si       2.23331013       0.70475427      -0.47416951       0.00000000
Si       0.50275827      -1.43759250       3.20789449       0.00000000
Si      -0.57500442       2.69280216       2.28205471       0.00000000
Si      -3.23327178       1.62334737      -0.57517521       0.00000000
Si      -2.82177009      -2.28918483      -0.47076366       0.00000000
Si       2.75843457      -0.38436255      -2.51368666       0.00000000
Si       2.00836152       3.08502531      -0.75052470       0.00000000
