10
Lattice="16.28999089631971 0.0 0.0 0.0 16.28999089631971 0.0 0.0 0.0 34.40246978574605" Properties=species:S:1:pos:R:3:initial_magmoms:R:1 pbc="T T T"
Si       1.43635446      -1.80674019      -0.30738624       0.00000000
Si      -1.43176068      -0.12756699       1.88026360       0.00000000
Si      -1.09784826       0.28189845      -2.09356347       0.00000000
Si       2.14913970       1.72432908       1.64265005       0.00000000
Si       0.38812554       0.72324342       3.13215195       0.00000000
Si      -1.49429799       2.59907343      -1.84190926       0.00000000
Si       3.02668200      -0.48373155      -1.87159861       0.00000000
Si      -3.26293587      -0.74210724      -1.94353421       0.00000000
Si       2.08681416       3.29177636      -0.34443772       0.00000000
Si      -3.10752927       1.58773743       1.90499383       0.00000000
