10
Lattice="16.28999089631971 0.0 0.0 0.0 16.28999089631971 0.0 0.0 0.0 34.40246978574605" Properties=species:S:1:pos:R:3:initial_magmoms:R:1 pbc="T T T"
Si       0.97753032       1.68438015       1.42721619       0.00000000
Si      -1.76101416      -1.00108566       1.48950190       0.00000000
Si      -0.06232554       1.56744728      -1.98708777       0.00000000
Si       1.91412387      -1.93430718       0.14548813       0.00000000
Si      -2.14913970      -1.72432908      -1.64265005       0.00000000
Si       2.24968158       0.33889716       2.91872234       0.00000000
Si       1.08556560       0.14612130      -3.55216020       0.00000000
Si      -0.48068532      -2.37156336       2.93083202       0.00000000
Si       2.90250333       2.55807476       0.25995385       0.00000000
Si       2.16751482       2.67673112      -2.00236247       0.00000000
