10
Lattice="16.28999089631971 0.0 0.0 0.0 16.28999089631971 0.0 0.0 0.0 34.40246978574605" Properties=species:S:1:pos:R:3:initial_magmoms:R:1 pbc="T T T"
Si      -1.36106208      -1.35031624      -1.35373794       0.00000000
Si       1.35882268      -1.35505806       1.36151291       0.00000000
Si      -1.35449721       1.35989083       1.36127209       0.00000000
Si       1.37769777       1.36617877      -1.36543479       0.00000000
Si      -0.00956223      -2.69989387      -2.71415341       0.00000000
Si      -2.70914103       2.71223776       0.00165132       0.00000000
Si      -2.71379997      -2.70813661       0.00337144       0.00000000
Si       2.71637772      -2.71053124      -0.00172012       0.00000000
Si       0.00158013      -2.71238830       2.71803745       0.00000000
Si      -2.71223613       0.00184892       2.71872550       0.00000000
