10
Lattice="16.28999089631971 0.0 0.0 0.0 16.28999089631971 0.0 0.0 0.0 34.40246978574605" Properties=species:S:1:pos:R:3:initial_magmoms:R:1 pbc="T T T"
Si       1.83434834       0.82181421      -1.24843192       0.00000000
Si       1.32535440       0.68185053       1.84545272       0.00000000
Si      -0.88145190      -2.00384088      -1.05832377       0.00000000
Si      -1.89104094       1.59739740       0.05325505       0.00000000
Si       0.37985022       1.99818027      -2.60602295       0.00000000
Si      -2.30808123      -0.76429748      -2.58569107       0.00000000
Si      -0.89231733       3.38889015      -1.14319471       0.00000000
Si       2.70170206       2.49852762       0.43945739       0.00000000
Si       2.99025171      -1.01595680       2.26296132       0.00000000
Si      -3.58487514       0.73611252      -1.33667431       0.00000000
