10
Lattice="16.28999089631971 0.0 0.0 0.0 16.28999089631971 0.0 0.0 0.0 34.40246978574605" Properties=species:S:1:pos:R:3:initial_magmoms:R:1 pbc="T T T"
Si      -1.69383420      -0.86128488      -1.38992936       0.00000000
Si       0.99872361       1.79149275      -1.19644976       0.00000000
Si      -0.90170037       0.45317151       2.23292795       0.00000000
Si       1.89104094      -1.59739740      -0.05325505       0.00000000
Si      -3.09975894      -1.21287195       0.42053603       0.00000000
Si      -0.23939784       2.73582405       2.16340052       0.00000000
Si       2.27089116       0.40078287      -2.65927800       0.00000000
Si      -0.41704029      -2.36169488      -2.63894613       0.00000000
Si       3.21639534      -0.91554687       1.79219767       0.00000000
Si       2.77674453       2.67239079       0.27786890       0.00000000
