10
Lattice="16.28999089631971 0.0 0.0 0.0 16.28999089631971 0.0 0.0 0.0 34.40246978574605" Properties=species:S:1:pos:R:3:initial_magmoms:R:1 pbc="T T T"
Si      -1.16963829       0.16006554      -2.00274090       0.00000000
Si       1.92407121       1.13845923      -0.66837156       0.00000000
Si      -0.56195613       1.45023354       1.77640692       0.00000000
Si      -0.06791301      -2.39165708       0.33318811       0.00000000
Si      -2.78762625       0.66461571       2.04515917       0.00000000
Si      -3.09190716      -1.12264164      -1.52533756       0.00000000
Si       3.32357444       0.98249877       1.20677051       0.00000000
Si       1.17152860       3.40016283      -0.95804051       0.00000000
Si       1.78204033      -2.86419088       1.73966506       0.00000000
Si      -0.41891364       3.71149731       0.78984675       0.00000000
