10
Lattice="16.28999089631971 0.0 0.0 0.0 16.28999089631971 0.0 0.0 0.0 34.40246978574605" Properties=species:S:1:pos:R:3:initial_magmoms:R:1 pbc="T T T"
Si       1.35558864      -1.35734796       1.35776303       0.00000000
Si       1.35679410       1.35772263      -1.35673096       0.00000000
Si      -1.35769005      -1.35777150      -1.35697178       0.00000000
Si      -1.36005210       1.36000323       1.35951756       0.00000000
Si       2.69853624       0.02795364       2.70369161       0.00000000
Si       2.71319724      -2.71339435       0.00172012       0.00000000
Si       2.71451673      -0.00013032      -2.71377154       0.00000000
Si      -0.00019548      -2.71516181      -2.71359953       0.00000000
Si      -0.00070047       2.71521720      -2.71432198       0.00000000
Si      -2.71581993       0.00081450      -2.71380594       0.00000000
