10
Lattice="16.28999089631971 0.0 0.0 0.0 16.28999089631971 0.0 0.0 0.0 34.40246978574605" Properties=species:S:1:pos:R:3:initial_magmoms:R:1 pbc="T T T"
Si       0.56195613      -1.45023354      -1.77640692       0.00000000
Si      -2.22567012      -0.78561783       0.26875224       0.00000000
Si       1.20387696      -0.42766137       2.03077893       0.00000000
Si       0.14304249       2.26126377      -0.98656018       0.00000000
Si       2.48602734      -0.31177431      -2.44477848       0.00000000
Si      -3.12961851       1.29433824       0.97114786       0.00000000
Si      -2.31668235       2.45804697      -1.15578602       0.00000000
Si      -1.83236436      -2.40186276       2.04364546       0.00000000
Si       0.29002716       1.16186796       3.47107353       0.00000000
Si       1.73348473       1.94992929      -2.73444744       0.00000000
