10
Lattice="16.28999089631971 0.0 0.0 0.0 16.28999089631971 0.0 0.0 0.0 34.40246978574605" Properties=species:S:1:pos:R:3:initial_magmoms:R:1 pbc="T T T"
Si       1.73617354       0.86387499      -1.60570177       0.00000000
Si      -0.86735372      -1.67671341      -1.68788932       0.00000000
Si      -1.81599847       1.77126057      -0.10833344       0.00000000
Si      -1.37634766      -1.81667709       1.40599532       0.00000000
Si       1.54867564      -0.00948078       2.41357542       0.00000000
Si      -2.70170206      -2.49852762      -0.43945739       0.00000000
Si       0.40667822       2.20467231      -3.01778634       0.00000000
Si      -2.55172003       1.71965385       2.24118455       0.00000000
Si      -2.32185184      -0.50034735      -3.04548034       0.00000000
Si       3.48024610       1.81335393      -0.36972355       0.00000000
