10
Lattice="16.28999089631971 0.0 0.0 0.0 16.28999089631971 0.0 0.0 0.0 34.40246978574605" Properties=species:S:1:pos:R:3:initial_magmoms:R:1 pbc="T T T"
Si      -0.86442885      -0.08565282       2.18411082       0.00000000
Si      -1.43474175       0.80511696      -1.69934535       0.00000000
Si      -0.68044959      -2.31958197      -0.57369591       0.00000000
Si       2.05912835       1.38836412       0.29699669       0.00000000
Si      -0.06848316      -0.48257496      -3.27552978       0.00000000
Si       0.90999265      -2.63091645      -2.32158317       0.00000000
Si       3.56478047      -0.20336436       1.34283235       0.00000000
Si       2.76862301      -1.05889887      -2.44515691       0.00000000
Si       0.65474790      -1.39559688       3.51982186       0.00000000
Si      -3.64469202       0.13978449      -1.24678060       0.00000000
