10
Lattice="16.28999089631971 0.0 0.0 0.0 16.28999089631971 0.0 0.0 0.0 34.40246978574605" Properties=species:S:1:pos:R:3:initial_magmoms:R:1 pbc="T T T"
Si      -1.68523308      -0.37186812       1.58808770       0.00000000
Si       1.39875944       1.82687463       0.46838989       0.00000000
Si       1.60074567      -1.73838735       0.05528480       0.00000000
Si      -1.21572270       0.33777315      -2.04670728       0.00000000
Si      -0.13333365       3.15670878       1.63074678       0.00000000
Si      -1.38618126       1.55315376       2.92104654       0.00000000
Si       0.84612282      -2.97188244      -1.83430631       0.00000000
Si      -0.67305393      -1.66193838      -3.17001735       0.00000000
Si       3.68001593      -0.54766980       0.39236039       0.00000000
Si      -3.69673857       0.30951000       0.60754796       0.00000000
