10
Lattice="16.28999089631971 0.0 0.0 0.0 16.28999089631971 0.0 0.0 0.0 34.40246978574605" Properties=species:S:1:pos:R:3:initial_magmoms:R:1 pbc="T T T"
Si      -1.34860023       1.34869797      -1.35810706       0.00000000
Si       1.36800162      -1.36335897      -1.35308430       0.00000000
Si      -1.34143263      -1.36309833       1.38363371       0.00000000
Si       1.36241415       1.34032491       1.39852998       0.00000000
Si       2.19248739      -0.51417756       2.80473172       0.00000000
Si       0.42940440      -2.36661120       2.73812850       0.00000000
Si      -2.70573642       2.70863939       0.00006880       0.00000000
Si      -2.70572013      -0.00619020      -2.71411557       0.00000000
Si       0.00754227       2.70827798      -2.71380594       0.00000000
Si      -2.69987202      -2.72953611       0.00110088       0.00000000
