10
Lattice="16.28999089631971 0.0 0.0 0.0 16.28999089631971 0.0 0.0 0.0 34.40246978574605" Properties=species:S:1:pos:R:3:initial_magmoms:R:1 pbc="T T T"
Si       2.10867275       0.03187953      -0.98993162       0.00000000
Si       0.06424776      -2.32158564       0.35420803       0.00000000
Si      -0.52512444       1.08911682       2.03951716       0.00000000
Si       0.36815400       1.61109729      -2.08802467       0.00000000
Si      -1.95600546       1.20415680      -2.72591562       0.00000000
Si       3.03170162       1.88144613       0.01885256       0.00000000
Si      -2.75843457       0.38436255       2.51368666       0.00000000
Si      -2.14570251      -2.98691811       0.80677277       0.00000000
Si      -0.75007305       3.46938786       1.76316196       0.00000000
Si       1.61352450       3.51094202      -0.97685868       0.00000000
