10
Lattice="16.28999089631971 0.0 0.0 0.0 16.28999089631971 0.0 0.0 0.0 34.40246978574605" Properties=species:S:1:pos:R:3:initial_magmoms:R:1 pbc="T T T"
Si      -1.35794092      -1.35597960       1.35511404       0.00000000
Si       1.35778779      -1.35650088      -1.35669656       0.00000000
Si      -1.35730723       1.35817875      -1.35686857       0.00000000
Si       1.35834165       1.35850455       1.35989599       0.00000000
Si      -2.70548059      -0.00733050       2.71304909       0.00000000
Si      -2.71335104       0.00306252      -2.71414997       0.00000000
Si      -2.71384952      -2.71370223      -0.00030962       0.00000000
Si       0.00052128      -2.71288773      -2.71501003       0.00000000
Si      -0.00311139      -2.71324611       2.71466601       0.00000000
Si       2.71379997       0.00169416      -2.71452840       0.00000000
