10
Lattice="16.28999089631971 0.0 0.0 0.0 16.28999089631971 0.0 0.0 0.0 34.40246978574605" Properties=species:S:1:pos:R:3:initial_magmoms:R:1 pbc="T T T"
Si      -0.73977125      -1.09296126      -1.94539195       0.00000000
Si       2.30101137       0.01519857      -0.49498301       0.00000000
Si      -1.06645580      -0.53214543       2.03814106       0.00000000
Si      -0.13771566       2.41800615       0.35093979       0.00000000
Si       2.72419299      -1.43553996       1.35924234       0.00000000
Si       0.90438822      -1.08836748       3.22220593       0.00000000
Si       0.47908890       3.23328807      -1.83977631       0.00000000
Si      -2.86846442      -2.05851843      -1.60752510       0.00000000
Si       2.69138493       0.01164735      -2.84986779       0.00000000
Si      -0.96058709       0.42889941      -3.78196882       0.00000000
