10
Lattice="16.28999089631971 0.0 0.0 0.0 16.28999089631971 0.0 0.0 0.0 34.40246978574605" Properties=species:S:1:pos:R:3:initial_magmoms:R:1 pbc="T T T"
Si      -2.13345732       0.54793044       0.75709558       0.00000000
Si       1.53099936       1.36816452       1.17955814       0.00000000
Si       0.28183329      -0.28095363      -2.39296833       0.00000000
Si      -0.27929205      -2.20830498       1.07077747       0.00000000
Si      -3.05648618      -1.30163616      -0.25168861       0.00000000
Si      -1.46315151       0.63654804       3.00719037       0.00000000
Si       0.89722062       0.54980379       3.33102100       0.00000000
Si       2.06250948      -2.50574409       1.41008922       0.00000000
Si      -1.66081437       0.92416428      -3.22502693       0.00000000
Si      -1.63092222      -3.32208486      -0.58983067       0.00000000
