10
Lattice="16.28999089631971 0.0 0.0 0.0 16.28999089631971 0.0 0.0 0.0 34.40246978574605" Properties=species:S:1:pos:R:3:initial_magmoms:R:1 pbc="T T T"
Si       0.92302887       1.84956660       1.00878419       0.00000000
Si      -2.10867275      -0.03187953       0.98993162       0.00000000
Si       1.42556396      -2.02044870      -0.33814206       0.00000000
Si      -1.74051875       1.57921776      -1.09809305       0.00000000
Si      -0.23003321       0.41573709      -2.68040113       0.00000000
Si       0.00918267      -2.07573696      -2.20148408       0.00000000
Si       2.77719413      -0.90666882       1.32246608       0.00000000
Si       3.05648618       1.30163616       0.25168861       0.00000000
Si      -2.04442499      -2.35346517       1.34413965       0.00000000
Si      -0.49514825       3.47906249       0.01307295       0.00000000
