10
Lattice="16.28999089631971 0.0 0.0 0.0 16.28999089631971 0.0 0.0 0.0 34.40246978574605" Properties=species:S:1:pos:R:3:initial_magmoms:R:1 pbc="T T T"
Si      -2.25983744       0.40808079       0.37863379       0.00000000
Si       0.76903461       1.73670948      -1.39749791       0.00000000
Si       0.97339266       0.48402477       2.13759865       0.00000000
Si       0.62514504      -1.97169273      -1.31589520       0.00000000
Si      -2.84108093      -1.44599814       1.69452900       0.00000000
Si       1.14717438       2.87816607       1.97542532       0.00000000
Si       3.12940674       1.64996523      -1.07366728       0.00000000
Si      -2.56358078       2.49649137       1.48061432       0.00000000
Si       2.90613600      -0.95135229       2.44470967       0.00000000
Si      -3.45809726       0.85576257      -1.62692811       0.00000000
