10
Lattice="10.86 0.0 0.0 0.0 10.86 0.0 0.0 0.0 10.86" Properties=species:S:1:pos:R:3:initial_magmoms:R:1 pbc="T T T"
Si      -1.04045316      -1.34868168       1.50846486       0.00000000
Si       1.67454684      -1.34868168      -1.20653514       0.00000000
Si       1.67454684       1.36631832       1.50846486       0.00000000
Si      -2.31187680       0.08484918      -2.66419692       0.00000000
Si      -2.54605098       0.14479638       2.51938968       0.00000000
Si      -2.39795316      -2.70618168       0.15096486       0.00000000
Si       0.08402382       2.65361928      -2.50991976       0.00000000
Si       0.31704684      -2.70618168      -2.56403514       0.00000000
Si       0.08576142       2.76692166       2.76028620       0.00000000
Si       0.31704684      -2.70618168       2.86596486       0.00000000
