10
Lattice="10.86 0.0 0.0 0.0 10.86 0.0 0.0 0.0 10.86" Properties=species:S:1:pos:R:3:initial_magmoms:R:1 pbc="T T T"
Si      -1.22976468      -0.72075648      -1.93197228       0.00000000
Si      -0.49827852      -1.72332996       1.68255066       0.00000000
Si      -1.50405570       1.95372486       0.78797988       0.00000000
Si       1.21540776       1.96547538      -1.56547986       0.00000000
Si      -2.75070768      -2.02560720      -0.43772316       0.00000000
Si      -2.75070768       0.68939280       2.27727684       0.00000000
Si      -0.03570768      -2.02560720      -3.15272316       0.00000000
Si      -1.43674542      -0.44938680       3.44708346       0.00000000
Si      -1.37973042      -3.58192122       0.94483086       0.00000000
Si       1.40786868      -3.30707634      -1.89538494       0.00000000
