10
Lattice="10.86 0.0 0.0 0.0 10.86 0.0 0.0 0.0 10.86" Properties=species:S:1:pos:R:3:initial_magmoms:R:1 pbc="T T T"
Si       1.19512128       1.44819186       1.26646062       0.00000000
Si       1.19512128      -1.26680814      -1.44853938       0.00000000
Si      -1.51987872       1.44819186      -1.44853938       0.00000000
Si      -0.39366414      -2.58120480       2.51828196       0.00000000
Si       2.55262128       0.09069186       2.62396062       0.00000000
Si       2.55262128      -2.62430814      -0.09103938       0.00000000
Si       2.55262128       2.80569186      -0.09103938       0.00000000
Si       2.55262128       0.09069186      -2.80603938       0.00000000
Si      -0.16237872       2.80569186       2.62396062       0.00000000
Si      -0.39540174      -2.69450718      -2.75192400       0.00000000
