10
Lattice="10.86 0.0 0.0 0.0 10.86 0.0 0.0 0.0 10.86" Properties=species:S:1:pos:R:3:initial_magmoms:R:1 pbc="T T T"
Si       1.30107144      -1.23035112      -1.25947764       0.00000000
Si      -1.41392856      -1.23035112       1.45552236       0.00000000
Si       1.30107144       1.48464888       1.45552236       0.00000000
Si      -1.79292084       2.28601914      -2.17024068       0.00000000
Si      -0.05642856      -2.58785112      -2.61697764       0.00000000
Si       2.65857144      -2.58785112       0.09802236       0.00000000
Si      -2.77142856      -2.58785112       0.09802236       0.00000000
Si      -0.05642856      -2.58785112       2.81302236       0.00000000
Si       2.65857144       0.12714888       2.81302236       0.00000000
Si       2.96213016      -0.12596514      -2.49400986       0.00000000
