10
Lattice="10.86 0.0 0.0 0.0 10.86 0.0 0.0 0.0 10.86" Properties=species:S:1:pos:R:3:initial_magmoms:R:1 pbc="T T T"
Si      -1.33334736      -1.34034120       1.33838640       0.00000000
Si      -1.33334736       1.37465880      -1.37661360       0.00000000
Si       1.38165264       1.37465880       1.33838640       0.00000000
Si      -2.71288230      -2.55768204      -0.10183422       0.00000000
Si      -2.69084736       0.01715880       2.69588640       0.00000000
Si       0.02415264      -2.69784120       2.69588640       0.00000000
Si      -2.69084736       2.73215880      -0.01911360       0.00000000
Si       0.02415264       2.73215880       2.69588640       0.00000000
Si       2.73915264       0.01715880       2.69588640       0.00000000
Si       0.02415264       2.73215880      -2.73411360       0.00000000
