10
Lattice="10.86 0.0 0.0 0.0 10.86 0.0 0.0 0.0 10.86" Properties=species:S:1:pos:R:3:initial_magmoms:R:1 pbc="T T T"
Si      -1.66301352       1.19667426       0.74110812       0.00000000
Si       1.43429106      -1.38367260       1.14373176       0.00000000
Si      -1.49549802      -1.42005360      -1.48174926       0.00000000
Si      -0.03995394       2.63059608       2.32629888       0.00000000
Si       2.67504606      -0.08440392       2.32629888       0.00000000
Si      -2.75495394      -0.08440392       2.32629888       0.00000000
Si      -0.03995394      -2.79940392       2.32629888       0.00000000
Si      -2.75495394       2.63059608      -0.38870112       0.00000000
Si       0.15062820       2.65146900      -2.80242300       0.00000000
Si       2.67504606      -2.79940392      -0.38870112       0.00000000
