10
Lattice="10.86 0.0 0.0 0.0 10.86 0.0 0.0 0.0 10.86" Properties=species:S:1:pos:R:3:initial_magmoms:R:1 pbc="T T T"
Si       1.35750000       1.35750000       1.35750000       0.00000000
Si      -1.35750000      -1.35750000       1.35750000       0.00000000
Si      -1.35750000       1.35750000      -1.35750000       0.00000000
Si       1.35750000      -1.35750000      -1.35750000       0.00000000
Si       0.11674500      -2.65676868      -2.54006712       0.00000000
Si      -0.09103938       2.68196388       2.52428754       0.00000000
Si      -2.44819152       0.05895894       2.78805522       0.00000000
Si      -0.04266894      -2.45647770       2.83007256       0.00000000
Si      -0.13822608       2.58313788      -2.77304670       0.00000000
Si       2.80026186      -0.23865936      -2.55968028       0.00000000
