10
Lattice="10.86 0.0 0.0 0.0 10.86 0.0 0.0 0.0 10.86" Properties=species:S:1:pos:R:3:initial_magmoms:R:1 pbc="T T T"
Si      -1.42671078       1.09575228       1.34028690       0.00000000
Si       1.28828922      -1.61924772       1.34028690       0.00000000
Si      -1.42671078      -1.61924772      -1.37471310       0.00000000
Si       2.41437348      -0.17720262      -2.63820894       0.00000000
Si      -0.06921078       2.45325228       2.69778690       0.00000000
Si       2.74490844       2.47623204       0.08133054       0.00000000
Si      -2.78421078       2.45325228      -0.01721310       0.00000000
Si       2.64578922      -0.26174772       2.69778690       0.00000000
Si      -2.78421078      -0.26174772       2.69778690       0.00000000
Si      -2.78421078      -0.26174772      -2.73221310       0.00000000
