10
Lattice="16.28999089631971 0.0 0.0 0.0 16.28999089631971 0.0 0.0 0.0 34.40246978574605" Properties=species:S:1:pos:R:3:initial_magmoms:R:1 pbc="T T T"
Si       1.35298224      -1.35788553      -1.35790064       0.00000000
Si       1.33473744       1.35773892       1.37744126       0.00000000
Si      -1.36037464       1.35868374      -1.35800385       0.00000000
Si      -1.35180284      -1.35652369       1.39519294       0.00000000
Si      -2.63675918       0.21100437       2.70296916       0.00000000
Si       2.71368594      -2.71219445       0.00278660       0.00000000
Si       2.71231758       0.00039096      -2.71521645       0.00000000
Si       2.71422351       2.71428867       0.00141050       0.00000000
Si      -0.00302994      -2.71388324      -2.71518204       0.00000000
Si      -2.71400087      -2.71700166       0.00533239       0.00000000
