10
Lattice="16.28999089631971 0.0 0.0 0.0 16.28999089631971 0.0 0.0 0.0 34.40246978574605" Properties=species:S:1:pos:R:3:initial_magmoms:R:1 pbc="T T T"
Si       1.29635820      -1.34750880       1.35248225       0.00000000
Si      -1.15733934      -1.25861427      -1.59032528       0.00000000
Si       1.88815761       0.81052524      -1.15081521       0.00000000
Si      -1.41429780       1.38994425       1.35452920       0.00000000
Si      -1.92148695       0.72506790      -2.61152876       0.00000000
Si      -2.72442431      -2.56490774      -0.17487817       0.00000000
Si       0.54850059      -1.79996355      -3.26479762       0.00000000
Si       2.63551023       0.04064355       2.70411820       0.00000000
Si      -0.08044002      -2.67393834       2.70752405       0.00000000
Si       1.75106097       0.22801113      -3.41616857       0.00000000
