10
Lattice="16.28999089631971 0.0 0.0 0.0 16.28999089631971 0.0 0.0 0.0 34.40246978574605" Properties=species:S:1:pos:R:3:initial_magmoms:R:1 pbc="T T T"
Si      -1.99656756      -0.34226593      -1.03348517       0.00000000
Si       0.17370027      -1.01237300       2.10718685       0.00000000
Si       1.41876126      -1.34434854      -1.29910679       0.00000000
Si       0.61985079       2.20850535      -0.54393775       0.00000000
Si       1.91568771       0.58040130       2.35474717       0.00000000
Si      -3.00529323       1.68574296      -0.13798838       0.00000000
Si       0.08713521       1.94112129      -2.90078347       0.00000000
Si       2.72642472       2.09739126       0.64115919       0.00000000
Si      -1.77114654      -1.95599147      -2.75852918       0.00000000
Si      -3.56664663      -1.36357726       0.38768165       0.00000000
