10
Lattice="16.28999089631971 0.0 0.0 0.0 16.28999089631971 0.0 0.0 0.0 34.40246978574605" Properties=species:S:1:pos:R:3:initial_magmoms:R:1 pbc="T T T"
Si       1.15338087      -2.01233302      -0.29961128       0.00000000
Si      -1.05174756      -0.11940570      -2.10691163       0.00000000
Si       1.20256038       2.02797468      -0.15137095       0.00000000
Si      -1.70583993       0.54134928       1.67447235       0.00000000
Si      -2.46998754       2.52503145       0.65326886       0.00000000
Si       1.36089918      -2.70131273       1.95811128       0.00000000
Si       1.33965702       2.61048879       2.11398242       0.00000000
Si      -0.57596553       3.49075152      -0.79603919       0.00000000
Si      -0.54850059       1.79996355       3.26479762       0.00000000
Si       2.97413046      -1.68997673      -1.78879182       0.00000000
