10
Lattice="16.28999089631971 0.0 0.0 0.0 16.28999089631971 0.0 0.0 0.0 34.40246978574605" Properties=species:S:1:pos:R:3:initial_magmoms:R:1 pbc="T T T"
Si      -1.07416260      -0.98986803       1.94879780       0.00000000
Si       1.28492262      -1.36297419      -1.57728532       0.00000000
Si       1.50819336       1.29325108       1.46234660       0.00000000
Si      -1.40917622       1.34981647      -1.56077212       0.00000000
Si       0.86938101      -2.19273792       2.78113161       0.00000000
Si      -1.53765871       1.07847557       3.25901659       0.00000000
Si       2.55596616       2.81419625      -0.00921987       0.00000000
Si       2.53115649      -2.86259901      -0.24683786       0.00000000
Si       2.65631256      -0.00585429      -2.95317846       0.00000000
Si      -2.69413256       2.91734453      -0.25299590       0.00000000
