10
Lattice="16.28999089631971 0.0 0.0 0.0 16.28999089631971 0.0 0.0 0.0 34.40246978574605" Properties=species:S:1:pos:R:3:initial_magmoms:R:1 pbc="T T T"
Si       1.49801211      -0.12017133       1.78886062       0.00000000
Si      -2.11941045       0.37673883       0.92264035       0.00000000
Si       0.05926302      -2.22078312      -0.76714110       0.00000000
Si       0.79035822       1.93956885      -1.28582743       0.00000000
Si       3.42306657      -0.08957871       0.44245041       0.00000000
Si      -1.30824990       1.92508704       2.59735352       0.00000000
Si       1.05699294       1.91221794       2.89706800       0.00000000
Si       2.98235691       2.15958159      -0.22471706       0.00000000
Si       0.42262776      -1.92458205      -3.13330989       0.00000000
Si      -3.57700707       0.50626062      -1.00303897       0.00000000
