10
Lattice="16.28999089631971 0.0 0.0 0.0 16.28999089631971 0.0 0.0 0.0 34.40246978574605" Properties=species:S:1:pos:R:3:initial_magmoms:R:1 pbc="T T T"
Si      -1.18213272      -1.34794863      -1.48743775       0.00000000
Si      -1.42097670       1.26128583       1.42861496       0.00000000
Si       1.28334249      -1.44541170       1.41126578       0.00000000
Si       1.07285940       1.57322304      -1.59442949       0.00000000
Si      -2.56578088      -2.67191838       0.10011812       0.00000000
Si      -2.74988069       2.56611483       0.00484731       0.00000000
Si       2.67722892       2.68022628      -0.06538881       0.00000000
Si       0.63767205      -1.69512111      -3.35040134       0.00000000
Si      -0.07721460       2.62472625       2.79362316       0.00000000
Si       2.63583603      -0.09319509       2.78939165       0.00000000
