10
Lattice="16.28999089631971 0.0 0.0 0.0 16.28999089631971 0.0 0.0 0.0 34.40246978574605" Properties=species:S:1:pos:R:3:initial_magmoms:R:1 pbc="T T T"
Si      -1.35351981       1.35210258       1.36054964       0.00000000
Si       1.35770634       1.35669636      -1.35614612       0.00000000
Si      -1.35723393      -1.35799956      -1.35642134       0.00000000
Si       1.35640314      -1.35931905       1.36127209       0.00000000
Si      -0.00417024      -2.70257616       2.70995286       0.00000000
Si       2.71217097       2.71492398       0.00285541       0.00000000
Si       2.71458189      -0.00014661      -2.71335871       0.00000000
Si      -0.00043983       2.71490769      -2.71335871       0.00000000
Si      -2.71510317      -0.00014661      -2.71325550       0.00000000
Si       0.00034209      -2.71523349      -2.71315230       0.00000000
