10
Lattice="16.28999089631971 0.0 0.0 0.0 16.28999089631971 0.0 0.0 0.0 34.40246978574605" Properties=species:S:1:pos:R:3:initial_magmoms:R:1 pbc="T T T"
Si       1.83979260      -1.10607471       0.99811941       0.00000000
Si      -1.34578206      -1.16985006      -1.62575842       0.00000000
Si       1.17147906       1.27671246      -1.68266014       0.00000000
Si      -0.49029642       1.94657355       1.34530933       0.00000000
Si       2.13293115       2.61529434      -0.01180005       0.00000000
Si       3.19365450       0.87545718       1.43393014       0.00000000
Si      -2.75929794      -2.52024219      -0.35644419       0.00000000
Si       2.78534565      -2.56332924      -0.56010692       0.00000000
Si      -2.43384003       3.14944344       0.51297551       0.00000000
Si      -0.07643268      -2.64007143      -3.02821029       0.00000000
