10
Lattice="16.28999089631971 0.0 0.0 0.0 16.28999089631971 0.0 0.0 0.0 34.40246978574605" Properties=species:S:1:pos:R:3:initial_magmoms:R:1 pbc="T T T"
Si       0.52955532      -2.28706713       0.02318728       0.00000000
Si       0.02541240       0.93967236       2.16291889       0.00000000
Si      -2.34694917       0.29973600      -0.34192634       0.00000000
Si       1.69955199       1.20721932      -1.23769835       0.00000000
Si      -2.06573490       2.50854597      -1.40541048       0.00000000
Si       2.36040471       1.17768555       2.39623657       0.00000000
Si      -1.46137590      -3.29572764       0.78933071       0.00000000
Si      -1.16888895       3.05657415       1.92416561       0.00000000
Si      -0.43013745      -0.84362652       3.68550425       0.00000000
Si       3.47824080      -0.73181196       1.37895497       0.00000000
