10
Lattice="16.28999089631971 0.0 0.0 0.0 16.28999089631971 0.0 0.0 0.0 34.40246978574605" Properties=species:S:1:pos:R:3:initial_magmoms:R:1 pbc="T T T"
Si       0.90953586       1.83068649      -1.18078872       0.00000000
Si      -1.39764942       1.28865303       1.48474950       0.00000000
Si       1.31012325      -1.40506137       1.47697110       0.00000000
Si      -1.60436952      -1.10700324      -1.52904068       0.00000000
Si       2.68149690      -2.66359419      -0.00218112       0.00000000
Si      -2.67722892      -2.68022628       0.06538881       0.00000000
Si      -0.76623273       3.54599091      -1.15605849       0.00000000
Si       2.72942208       2.68149690       0.07109962       0.00000000
Si      -2.76532524       2.66155794       0.10223732       0.00000000
Si      -0.04463460       2.66113440       2.85330116       0.00000000
