10
Lattice="16.28999089631971 0.0 0.0 0.0 16.28999089631971 0.0 0.0 0.0 34.40246978574605" Properties=species:S:1:pos:R:3:initial_magmoms:R:1 pbc="T T T"
Si      -1.36070370       1.35430892      -1.36068725       0.00000000
Si       1.35692442      -1.36045935      -1.36075605       0.00000000
Si      -1.37138994      -1.35711990       1.37589315       0.00000000
Si       1.35448092       1.36402427       1.40578891       0.00000000
Si       2.71062342      -2.71220355      -0.00560761       0.00000000
Si      -2.71368594       2.71219445      -0.00278660       0.00000000
Si       2.71453302       2.71172204       0.00227056       0.00000000
Si      -2.72326446      -2.70589932      -0.00172012       0.00000000
Si      -0.00136836       2.71258541      -2.71800305       0.00000000
Si       2.71326240      -0.00222341      -2.71845028       0.00000000
