10
Lattice="16.28999089631971 0.0 0.0 0.0 16.28999089631971 0.0 0.0 0.0 34.40246978574605" Properties=species:S:1:pos:R:3:initial_magmoms:R:1 pbc="T T T"
Si       1.57007907       1.02131132      -1.42116682       0.00000000
Si      -1.59216831       0.77283995      -1.56011847       0.00000000
Si       0.39949596      -2.35468270      -0.00667408       0.00000000
Si      -0.28553112       1.92177528       1.40138539       0.00000000
Si       0.56135340       3.04932021      -0.52567003       0.00000000
Si      -3.35281432       1.37492324      -0.08762314       0.00000000
Si       1.79550009      -0.59241421      -3.14621083       0.00000000
Si       1.91959731       0.02884796       3.20868575       0.00000000
Si       1.62562797      -2.72948302      -2.05358778       0.00000000
Si       3.56664663       1.36357726      -0.38768165       0.00000000
