10
Lattice="16.28999089631971 0.0 0.0 0.0 16.28999089631971 0.0 0.0 0.0 34.40246978574605" Properties=species:S:1:pos:R:3:initial_magmoms:R:1 pbc="T T T"
Si      -2.22547464       0.01606194       0.57999156       0.00000000
Si       1.12216923       0.73126040      -1.87816949       0.00000000
Si       0.96443316       0.62770487       2.03941395       0.00000000
Si       0.69248790      -2.23580250      -0.36638651       0.00000000
Si       3.19621203       0.25741458      -0.74477948       0.00000000
Si      -0.09989028      -2.93860197       1.72989476       0.00000000
Si      -2.39534676      -2.12100687       1.67261461       0.00000000
Si       3.06331821       1.35543293       1.34675424       0.00000000
Si       1.17457416      -1.50079770       3.09498552       0.00000000
Si       0.53768403      -0.81378324      -3.60352311       0.00000000
