10
Lattice="16.28999089631971 0.0 0.0 0.0 16.28999089631971 0.0 0.0 0.0 34.40246978574605" Properties=species:S:1:pos:R:3:initial_magmoms:R:1 pbc="T T T"
Si       1.05875226      -0.14330313      -2.09906787       0.00000000
Si      -0.39644973       2.31717498       0.25165421       0.00000000
Si       1.09784826      -0.28189845       2.09356347       0.00000000
Si      -2.16508761      -1.02400569       0.15006366       0.00000000
Si      -2.21719932       1.99481868       1.74083475       0.00000000
Si       2.53420272      -2.08863864       1.78617723       0.00000000
Si      -0.21571218      -1.58110740      -3.46415863       0.00000000
Si       0.84861126       1.98519944      -3.15463944       0.00000000
Si      -0.57015000       3.32954798      -1.85553265       0.00000000
Si       3.35271006      -0.59782671      -2.00311933       0.00000000
