10
Lattice="16.28999089631971 0.0 0.0 0.0 16.28999089631971 0.0 0.0 0.0 34.40246978574605" Properties=species:S:1:pos:R:3:initial_magmoms:R:1 pbc="T T T"
Si      -1.47823605       1.26915390      -1.24478526       0.00000000
Si      -1.39968567      -0.35737002       1.81211671       0.00000000
Si       1.27785276      -1.49990012      -1.24767507       0.00000000
Si       1.69049475       0.86825700       1.39223433       0.00000000
Si      -1.36392912      -2.62826281       2.12511055       0.00000000
Si      -0.09309735       2.59532280      -2.61097690       0.00000000
Si       2.62177776      -0.12279402      -2.61341948       0.00000000
Si       2.69695611       2.66250276       0.20352512       0.00000000
Si      -2.80570815      -0.12362481      -2.60729584       0.00000000
Si       2.70296712      -2.73923990       0.27962343       0.00000000
