10
Lattice="16.28999089631971 0.0 0.0 0.0 16.28999089631971 0.0 0.0 0.0 34.40246978574605" Properties=species:S:1:pos:R:3:initial_magmoms:R:1 pbc="T T T"
Si       0.78923421      -2.16187848       0.24934924       0.00000000
Si       0.94920201       1.13570622      -1.86874320       0.00000000
Si      -2.24137368      -0.89285490       0.23906290       0.00000000
Si       1.35151614       1.95084153       0.70466618       0.00000000
Si      -0.60875730       3.44145798       0.28450858       0.00000000
Si       0.83673585      -0.42003765      -3.59203268       0.00000000
Si      -0.42707493      -3.42867033      -1.36657007       0.00000000
Si       3.08125350       1.85292234      -1.02956329       0.00000000
Si      -3.30673968       0.85929750       1.60384404       0.00000000
Si      -0.27966672      -1.10708469       3.62079316       0.00000000
