10
Lattice="16.28999089631971 0.0 0.0 0.0 16.28999089631971 0.0 0.0 0.0 34.40246978574605" Properties=species:S:1:pos:R:3:initial_magmoms:R:1 pbc="T T T"
Si      -1.67410701      -0.93871125       1.41400564       0.00000000
Si      -1.17827199       0.21450672      -2.08713020       0.00000000
Si       0.98316666       1.88584443       1.30926382       0.00000000
Si       1.84880097      -1.75187547      -0.07018108       0.00000000
Si      -0.38483496      -2.28304350       2.83053500       0.00000000
Si       2.32538121       0.43983000       2.79141249       0.00000000
Si      -0.11290599      -1.53764568      -3.45191134       0.00000000
Si      -2.48580513      -2.88275985       0.31125759       0.00000000
Si       1.10648196      -3.41941761       1.46258195       0.00000000
Si       3.59740215      -0.96042582       1.36168633       0.00000000
