10
Lattice="16.28999089631971 0.0 0.0 0.0 16.28999089631971 0.0 0.0 0.0 34.40246978574605" Properties=species:S:1:pos:R:3:initial_magmoms:R:1 pbc="T T T"
Si      -0.62915238      -1.20283731       1.96204275       0.00000000
Si       1.55097090      -1.56239019      -0.93660776       0.00000000
Si       0.85799430       2.26085652       0.32620440       0.00000000
Si      -2.12613822       0.38617074      -1.33175475       0.00000000
Si      -2.94008436      -1.58351832       1.17295286       0.00000000
Si      -0.88945029       1.62642618      -3.06925246       0.00000000
Si       0.25878294      -3.50060697      -1.00001155       0.00000000
Si      -1.19726613      -3.39439617       0.84850299       0.00000000
Si       0.16879698       3.28500882      -1.72762419       0.00000000
Si       3.06436077      -2.15252802       0.81678389       0.00000000
