10
Lattice="16.28999089631971 0.0 0.0 0.0 16.28999089631971 0.0 0.0 0.0 34.40246978574605" Properties=species:S:1:pos:R:3:initial_magmoms:R:1 pbc="T T T"
Si      -0.31814370      -0.91445544       2.11585628       0.00000000
Si       1.03920426       1.96874424       0.85600273       0.00000000
Si      -2.09683251       1.02457584      -0.50079703       0.00000000
Si       1.81900656      -1.26664524      -1.02061864       0.00000000
Si      -0.49192542      -1.64732625      -1.80970853       0.00000000
Si       1.98350298      -0.90352485       2.59401648       0.00000000
Si      -1.43597979       0.99504207       3.13313788       0.00000000
Si      -1.89592794       0.97384878      -2.97316631       0.00000000
Si      -0.73011780       2.99716452       2.00614674       0.00000000
Si       3.11049405      -2.00104731       0.88108215       0.00000000
