10
Lattice="16.28999089631971 0.0 0.0 0.0 16.28999089631971 0.0 0.0 0.0 34.40246978574605" Properties=species:S:1:pos:R:3:initial_magmoms:R:1 pbc="T T T"
Si      -0.16278597      -2.27656334      -0.53630040       0.00000000
Si      -1.90391004       0.13424589       1.41005482       0.00000000
Si      -0.39346866       1.61696169      -1.77399875       0.00000000
Si       2.26154070      -0.07988616       0.92281237       0.00000000
Si       3.03661713       1.97423397      -0.01303854       0.00000000
Si       1.83195711       2.40360579      -2.04533118       0.00000000
Si       1.80838548      -0.83756664       3.16719635       0.00000000
Si      -2.17655577      -3.10354541       0.28578148       0.00000000
Si       1.52629155      -3.45086450       0.63709969       0.00000000
Si      -2.30944959      -2.00552706       2.37731520       0.00000000
