10
Lattice="16.28999089631971 0.0 0.0 0.0 16.28999089631971 0.0 0.0 0.0 34.40246978574605" Properties=species:S:1:pos:R:3:initial_magmoms:R:1 pbc="T T T"
Si      -1.35578246      -1.35782037      -1.35690297       0.00000000
Si      -1.35635822       1.35746199       1.35669656       0.00000000
Si       1.35764932      -1.35773892       1.35724700       0.00000000
Si       1.35800770       1.35829278      -1.35803825       0.00000000
Si      -2.71140438      -0.00022806       2.71576689       0.00000000
Si      -0.00051151       2.71508688       2.71232664       0.00000000
Si      -2.71402707       2.71476108      -0.00010321       0.00000000
Si       0.00027204      -2.71489140       2.71490682       0.00000000
Si       2.71553485       0.00022806       2.71439079       0.00000000
Si       2.71527421       2.71467963       0.00027522       0.00000000
