10
Lattice="16.28999089631971 0.0 0.0 0.0 16.28999089631971 0.0 0.0 0.0 34.40246978574605" Properties=species:S:1:pos:R:3:initial_magmoms:R:1 pbc="T T T"
Si       1.02646548      -1.98440219      -0.64270730       0.00000000
Si       0.73498851      -0.11865636       2.26231632       0.00000000
Si       0.17397720       1.85878674      -1.60752510       0.00000000
Si      -2.22984036      -1.10928384       0.01527471       0.00000000
Si      -1.08194922      -2.53060982      -1.54979773       0.00000000
Si      -2.04191892       2.57456934      -1.33230519       0.00000000
Si      -1.18998450      -0.99235096       3.42957866       0.00000000
Si       3.29287756       1.88459010      -0.41310509       0.00000000
Si       2.43792882      -1.98863270       2.21417860       0.00000000
Si      -2.16751482      -2.67673112       2.00236247       0.00000000
