10
Lattice="16.28999089631971 0.0 0.0 0.0 16.28999089631971 0.0 0.0 0.0 34.40246978574605" Properties=species:S:1:pos:R:3:initial_magmoms:R:1 pbc="T T T"
Si       1.38261100       1.34490240      -1.34110879       0.00000000
Si       1.35684367      -1.35697329       1.36065284       0.00000000
Si      -1.35760860       1.36085031       1.36027442       0.00000000
Si      -1.37722176      -1.35503478      -1.37646423       0.00000000
Si       0.07752411       2.72277576      -2.63685102       0.00000000
Si       0.09471006      -2.65233780      -2.74476818       0.00000000
Si       2.70874585       2.71637379       0.00288981       0.00000000
Si       2.71177905      -2.71661814       0.00264899       0.00000000
Si       2.71262613       0.00084708       2.71755581       0.00000000
Si      -0.00184077      -2.71479366       2.71783103       0.00000000
