10
Lattice="16.28999089631971 0.0 0.0 0.0 16.28999089631971 0.0 0.0 0.0 34.40246978574605" Properties=species:S:1:pos:R:3:initial_magmoms:R:1 pbc="T T T"
Si      -0.39860001       2.37961062       0.07159158       0.00000000
Si      -1.94694822      -1.42056945       0.32462189       0.00000000
Si       0.37095588      -1.03912281      -2.26285812       0.00000000
Si       1.75044262      -0.19295505       2.01966692       0.00000000
Si      -0.60861069      -3.41140293       1.00303897       0.00000000
Si      -3.20417784       1.03153167      -1.74520387       0.00000000
Si       0.17239707       0.14284701       3.78774844       0.00000000
Si      -1.91198988       2.96974845      -1.68180008       0.00000000
Si       1.48295919       3.54776652      -0.88500403       0.00000000
Si      -3.55415220      -0.34976259       1.69545787       0.00000000
