10
Lattice="16.28999089631971 0.0 0.0 0.0 16.28999089631971 0.0 0.0 0.0 34.40246978574605" Properties=species:S:1:pos:R:3:initial_magmoms:R:1 pbc="T T T"
Si       0.13424589      -0.95050521       2.10718685       0.00000000
Si       0.91419303      -1.58951304      -1.44032901       0.00000000
Si      -2.30180958       0.35363961      -0.29035701       0.00000000
Si       1.18878134       2.02294107      -0.36335909       0.00000000
Si      -2.45873115       2.31340806      -1.43365492       0.00000000
Si      -0.29046699      -1.16014122      -3.47262164       0.00000000
Si       0.13911660      -3.64363317      -0.50447810       0.00000000
Si      -0.33210423       3.33379737      -1.69882931       0.00000000
Si       0.03495834       0.76931154       3.70015971       0.00000000
Si       3.17611736      -0.95641848      -1.81438727       0.00000000
