10
Lattice="16.28999089631971 0.0 0.0 0.0 16.28999089631971 0.0 0.0 0.0 34.40246978574605" Properties=species:S:1:pos:R:3:initial_magmoms:R:1 pbc="T T T"
Si       1.30508689      -1.37787336       1.29574223       0.00000000
Si      -1.30427514      -1.35167904      -1.35378955       0.00000000
Si       1.37685884       1.15548228      -1.49387102       0.00000000
Si      -1.42845381       1.35832536       1.28078402       0.00000000
Si      -2.07870174       0.51756588      -2.55969453       0.00000000
Si      -0.47977308       2.35532223      -2.41981401       0.00000000
Si       0.50611401      -2.33552988      -2.60648191       0.00000000
Si       2.27674809      -0.70820775      -2.82404325       0.00000000
Si       2.63122174      -0.00640197       2.63974082       0.00000000
Si       2.67984414       2.64963366      -0.14769333       0.00000000
