10
Lattice="16.28999089631971 0.0 0.0 0.0 16.28999089631971 0.0 0.0 0.0 34.40246978574605" Properties=species:S:1:pos:R:3:initial_magmoms:R:1 pbc="T T T"
Si      -1.35724254      -1.35733024       1.35652454       0.00000000
Si       1.35839073       1.35758626       1.35662775       0.00000000
Si      -1.35882267       1.35505806      -1.36151291       0.00000000
Si       1.35755505      -1.35547318      -1.36323303       0.00000000
Si      -2.71331988       2.71494889      -0.00024082       0.00000000
Si       0.00145257       2.71486744       2.71394355       0.00000000
Si       0.00111271      -2.71493884       2.71408116       0.00000000
Si      -2.71547016       0.00018095       2.71394355       0.00000000
Si      -2.71429728      -2.71531351      -0.00058484       0.00000000
Si       2.71575335       0.00012082       2.71449399       0.00000000
