10
Lattice="16.28999089631971 0.0 0.0 0.0 16.28999089631971 0.0 0.0 0.0 34.40246978574605" Properties=species:S:1:pos:R:3:initial_magmoms:R:1 pbc="T T T"
Si       2.11153328       0.01897785      -0.98938118       0.00000000
Si       0.04930983      -2.32479477       0.31791340       0.00000000
Si      -0.52168725       1.08812313       2.03566408       0.00000000
Si       0.36914769       1.61098326      -2.09170573       0.00000000
Si      -1.95333390       1.20438486      -2.72846140       0.00000000
Si       3.03450024       1.88079453       0.01616917       0.00000000
Si      -2.75688702       0.38170728       2.50911113       0.00000000
Si      -2.14899309      -2.99371104       0.80907774       0.00000000
Si       0.25303257      -3.20899968      -2.23788191       0.00000000
Si      -0.74793906       3.46816773       1.76133863       0.00000000
