10
Lattice="16.28999089631971 0.0 0.0 0.0 16.28999089631971 0.0 0.0 0.0 34.40246978574605" Properties=species:S:1:pos:R:3:initial_magmoms:R:1 pbc="T T T"
Si      -0.91419303       1.58951304       1.44032901       0.00000000
Si       2.26192433       0.63309456      -0.37405826       0.00000000
Si      -0.77507643      -2.05412013       0.93585091       0.00000000
Si      -1.20466002       0.42937182      -2.03229264       0.00000000
Si      -3.03661713      -1.97423397       0.01303854       0.00000000
Si      -0.77994714       0.63900783       3.54751586       0.00000000
Si       2.68165247      -0.04145805      -2.59931446       0.00000000
Si       0.27458831       3.61245411       1.07696992       0.00000000
Si       2.41185749       3.01016394       0.29775354       0.00000000
Si      -3.43008579      -0.35727228      -1.76096021       0.00000000
