10
Lattice="16.28999089631971 0.0 0.0 0.0 16.28999089631971 0.0 0.0 0.0 34.185847837958455" Properties=species:S:1:pos:R:3:initial_magmoms:R:1 pbc="T T T"
Si      -1.39620287       1.27725285      -1.36383149       0.00000000
Si       1.33146315       1.35723186       1.35266296       0.00000000
Si      -1.38571537      -1.35478828       1.34944949       0.00000000
Si       1.28563938      -1.41058153      -1.39578844       0.00000000
Si      -0.56244483      -2.29604077      -2.58232791       0.00000000
Si      -2.46010114      -0.51542974      -2.55865865       0.00000000
Si       2.68066611       2.71092598      -0.04127943       0.00000000
Si       2.68592778      -0.00025849       2.71131187       0.00000000
Si       2.67516009      -2.73614770      -0.01254279       0.00000000
Si      -0.02748123       2.71538944       2.71032048       0.00000000
