10
Lattice="16.28999089631971 0.0 0.0 0.0 16.28999089631971 0.0 0.0 0.0 34.185847837958455" Properties=species:S:1:pos:R:3:initial_magmoms:R:1 pbc="T T T"
Si      -0.67966767       0.02733462       2.21497069       0.00000000
Si       1.94171913       1.29091734      -0.37101921       0.00000000
Si      -1.80861843       0.76730787      -1.32012144       0.00000000
Si       0.42264405      -2.22982407      -0.77027595       0.00000000
Si       2.02233834      -1.55742174      -2.40189901       0.00000000
Si       3.41019747      -0.47021085      -0.84832229       0.00000000
Si      -1.20488985      -0.08044002      -3.47622407       0.00000000
Si      -2.31565119      -1.77275925       2.27513782       0.00000000
Si      -1.13653701       2.39821380       2.70194837       0.00000000
Si       1.10916981       0.16998615      -3.71959325       0.00000000
