10
Lattice="16.28999089631971 0.0 0.0 0.0 16.28999089631971 0.0 0.0 0.0 34.185847837958455" Properties=species:S:1:pos:R:3:initial_magmoms:R:1 pbc="T T T"
Si       0.20463498       0.18673227       2.35079114       0.00000000
Si      -1.92311595       1.34674058      -0.65089891       0.00000000
Si       1.85039739       1.44346409      -0.68607616       0.00000000
Si       0.45686934      -2.37087918      -0.48697767       0.00000000
Si      -1.96839563      -1.32885675       2.31913503       0.00000000
Si       0.26099838      -2.17684899       2.80799292       0.00000000
Si       2.14645185      -2.70430290       1.13271452       0.00000000
Si      -1.11179250       2.18519666      -2.70270045       0.00000000
Si       2.61459387       0.56185839       2.65422490       0.00000000
Si      -1.07646601       2.24523019       2.84727249       0.00000000
