10
Lattice="16.28999089631971 0.0 0.0 0.0 16.28999089631971 0.0 0.0 0.0 34.185847837958455" Properties=species:S:1:pos:R:3:initial_magmoms:R:1 pbc="T T T"
Si      -1.34920296      -1.35369411       1.39394240       0.00000000
Si       1.36531377       1.36405944       1.39397658       0.00000000
Si       1.32460506      -1.46296417      -1.44034971       0.00000000
Si      -1.50293169       1.30575753      -1.45444113       0.00000000
Si      -2.68066611      -2.71092598       0.04127943       0.00000000
Si       2.70348840       2.70444951       0.03526614       0.00000000
Si       2.70655092      -2.70478250       0.04247252       0.00000000
Si      -2.70730026       2.71422351       0.02458306       0.00000000
Si      -2.70814734       0.00446346       2.75159992       0.00000000
Si       0.00526167      -2.71118447       2.75259131       0.00000000
