10
Lattice="16.28999089631971 0.0 0.0 0.0 16.28999089631971 0.0 0.0 0.0 34.185847837958455" Properties=species:S:1:pos:R:3:initial_magmoms:R:1 pbc="T T T"
Si      -1.29197197       1.87193277      -0.52075331       0.00000000
Si       1.25507445       0.74174886       1.82285880       0.00000000
Si      -0.98014879      -1.99760102       0.70839953       0.00000000
Si      -1.37545822      -2.77733816      -1.43922500       0.00000000
Si      -2.14478605      -0.80451423      -2.60376656       0.00000000
Si       0.85939687      -3.14640440       1.75715356       0.00000000
Si       3.42583098      -0.12505833       1.48462383       0.00000000
Si      -2.88308143       2.11752081       1.17476313       0.00000000
Si       0.14372830       2.56370391      -2.93882224       0.00000000
Si      -2.86490179      -1.66822469       2.13846272       0.00000000
