10
Lattice="16.28999089631971 0.0 0.0 0.0 16.28999089631971 0.0 0.0 0.0 34.185847837958455" Properties=species:S:1:pos:R:3:initial_magmoms:R:1 pbc="T T T"
Si       2.30656626      -0.35518716       0.00646113       0.00000000
Si      -0.94198554      -0.64236357      -2.09231180       0.00000000
Si      -0.70472169      -1.40696078       1.80039868       0.00000000
Si      -0.93416634       2.23858809       0.32825269       0.00000000
Si      -0.65497203       0.17917371       3.50808529       0.00000000
Si      -3.11274207       0.22444362      -1.75407683       0.00000000
Si      -1.85103270       1.98627228       2.52760044       0.00000000
Si       3.21810579       1.79543493      -0.55193082       0.00000000
Si      -2.41798986       2.45091195      -1.53545821       0.00000000
Si      -2.96008848      -1.79679840       1.49156356       0.00000000
