10
Lattice="16.28999089631971 0.0 0.0 0.0 16.28999089631971 0.0 0.0 0.0 34.185847837958455" Properties=species:S:1:pos:R:3:initial_magmoms:R:1 pbc="T T T"
Si       2.13504885       1.05169869       0.02351988       0.00000000
Si      -0.95246001       0.33401016      -2.16382863       0.00000000
Si      -1.45637487       1.62139257       1.04065198       0.00000000
Si       0.33839217      -2.18905183       0.96619516       0.00000000
Si       2.21786721       1.57418415      -2.24966935       0.00000000
Si      -1.31667183       0.90354114       3.31008075       0.00000000
Si       0.04939128       2.45995290      -2.76553408       0.00000000
Si       1.81850157       3.11041260       1.02742205       0.00000000
Si       0.26090064      -1.14349121      -3.56384244       0.00000000
Si      -0.38553543       3.70190250       0.68693081       0.00000000
