10
Lattice="16.28999089631971 0.0 0.0 0.0 16.28999089631971 0.0 0.0 0.0 34.185847837958455" Properties=species:S:1:pos:R:3:initial_magmoms:R:1 pbc="T T T"
Si      -1.35690813      -1.35669636      -1.35734985       0.00000000
Si      -1.35446463       1.35671265       1.36193075       0.00000000
Si       1.35835794       1.35889551      -1.35741822       0.00000000
Si       1.35842310      -1.35824391       1.35878565       0.00000000
Si      -2.71899648      -0.03085326       2.70362347       0.00000000
Si       2.71435383      -2.71402151      -0.00105976       0.00000000
Si       0.00089595      -2.71447926      -2.71428946       0.00000000
Si      -2.71458189       0.00177561      -2.71446039       0.00000000
Si       0.01668096       2.72096757       2.70885391       0.00000000
Si       2.71586880       0.00105885      -2.71463132       0.00000000
