10
Lattice="16.28999089631971 0.0 0.0 0.0 16.28999089631971 0.0 0.0 0.0 34.185847837958455" Properties=species:S:1:pos:R:3:initial_magmoms:R:1 pbc="T T T"
Si       0.74306835      -0.64345500      -2.24467821       0.00000000
Si       1.81657935       0.85638159       1.47527198       0.00000000
Si      -1.77409503       1.85585454       0.01952013       0.00000000
Si      -1.05772599      -1.94834916       1.33946863       0.00000000
Si      -1.54888578      -0.60222501      -2.72830567       0.00000000
Si       0.46281519       2.18657412       2.84770122       0.00000000
Si      -2.26209456      -0.53988318       2.81849281       0.00000000
Si       2.43869445       2.63883339      -1.21889709       0.00000000
Si      -3.51284402       0.82686411       1.34220350       0.00000000
Si       2.45286675       0.93913479      -2.88152672       0.00000000
