10
Lattice="16.28999089631971 0.0 0.0 0.0 16.28999089631971 0.0 0.0 0.0 34.185847837958455" Properties=species:S:1:pos:R:3:initial_magmoms:R:1 pbc="T T T"
Si      -1.36335897      -1.34615673       1.35372615       0.00000000
Si       1.35747828      -1.35523026      -1.36049495       0.00000000
Si      -1.35959598       1.36028016      -1.35923007       0.00000000
Si       1.36322865       1.35532800       1.37618626       0.00000000
Si       2.71339272      -2.71021617      -0.00598253       0.00000000
Si      -2.71619460      -2.71122615      -0.00335021       0.00000000
Si      -0.00117288      -2.71205694      -2.71702433       0.00000000
Si       2.71349046       0.00241092      -2.71753712       0.00000000
Si      -2.71682991       0.00286704      -2.71671666       0.00000000
Si       2.71417464       2.71987614       0.00013674       0.00000000
