10
Lattice="16.28999089631971 0.0 0.0 0.0 16.28999089631971 0.0 0.0 0.0 34.185847837958455" Properties=species:S:1:pos:R:3:initial_magmoms:R:1 pbc="T T T"
Si       0.69353046      -1.70354304      -1.49364890       0.00000000
Si       1.54582326       1.79250273      -0.19482526       0.00000000
Si      -2.07963027       0.70320672      -0.93112046       0.00000000
Si       0.26179659      -0.65427156       2.29876025       0.00000000
Si       0.59909733       3.32180793       1.27202192       0.00000000
Si       0.06582789      -0.60015618      -3.65293081       0.00000000
Si      -1.57587831       1.11063591      -3.21063407       0.00000000
Si      -1.31603652      -2.37029274       2.60000611       0.00000000
Si       2.86353765      -2.39818122      -0.78456565       0.00000000
Si       2.49020343      -1.24799319       2.71634062       0.00000000
