10
Lattice="16.28999089631971 0.0 0.0 0.0 16.28999089631971 0.0 0.0 0.0 34.185847837958455" Properties=species:S:1:pos:R:3:initial_magmoms:R:1 pbc="T T T"
Si      -0.59572530       1.72125027      -1.40941492       0.00000000
Si      -1.41130044      -1.21441950       1.44770309       0.00000000
Si       1.50741144       0.76460373       1.66850961       0.00000000
Si       0.97842627      -1.76234994      -1.44818170       0.00000000
Si       2.16916011      -1.48046778       1.68293604       0.00000000
Si       0.16747749      -2.80981323       2.06759542       0.00000000
Si       3.08871432      -1.71678681      -0.46010758       0.00000000
Si      -2.99550294      -1.95155829      -0.06802988       0.00000000
Si      -1.98358443       0.63403938      -2.96299165       0.00000000
Si       1.32662502       2.95966494      -1.85841210       0.00000000
