10
Lattice="16.28999089631971 0.0 0.0 0.0 16.28999089631971 0.0 0.0 0.0 34.185847837958455" Properties=species:S:1:pos:R:3:initial_magmoms:R:1 pbc="T T T"
Si      -1.43949843      -0.09394443       1.77745997       0.00000000
Si       0.31824144      -1.10561859      -2.03101654       0.00000000
Si       2.08608111       0.99290808       0.35132815       0.00000000
Si      -1.26646605       1.99417293      -0.20514939       0.00000000
Si       0.07576479      -0.56971017       3.51953756       0.00000000
Si       1.89701937      -2.70101232      -1.41112422       0.00000000
Si       3.02142033      -0.29012490       2.04985295       0.00000000
Si       1.81035657      -2.28439557       2.25852349       0.00000000
Si       0.34222032       3.72327498      -0.26603442       0.00000000
Si       3.23695332       0.87340464      -1.81021003       0.00000000
