10
Lattice="16.28999089631971 0.0 0.0 0.0 16.28999089631971 0.0 0.0 0.0 34.185847837958455" Properties=species:S:1:pos:R:3:initial_magmoms:R:1 pbc="T T T"
Si      -1.35933534       1.35616598      -1.35923007       0.00000000
Si       1.35715248      -1.35871632      -1.35933263       0.00000000
Si       1.37420811       1.34913521       1.37905787       0.00000000
Si      -1.36285398      -1.36360332       1.37837416       0.00000000
Si      -0.04342914       2.66037596       2.76245735       0.00000000
Si       2.71536381       2.71261799      -0.00054697       0.00000000
Si      -2.71410948      -2.71427238      -0.00064953       0.00000000
Si       2.71578735      -2.71329498       0.00037604       0.00000000
Si      -2.71399545       2.71525697      -0.00355533       0.00000000
Si       0.00003258       2.71416554      -2.71668247       0.00000000
