10
Lattice="16.28999089631971 0.0 0.0 0.0 16.28999089631971 0.0 0.0 0.0 34.185847837958455" Properties=species:S:1:pos:R:3:initial_magmoms:R:1 pbc="T T T"
Si       1.43045748       1.26498107       1.34623944       0.00000000
Si       1.40730939      -1.17183744      -1.49388820       0.00000000
Si      -1.72307475      -1.00579347       1.37307535       0.00000000
Si      -1.29033090       1.55725625      -1.49484540       0.00000000
Si      -3.23315775       0.99160392       1.37649393       0.00000000
Si      -2.70340695      -2.56049478      -0.08495188       0.00000000
Si       0.20450466       1.83709565       3.28881714       0.00000000
Si       0.05124834      -2.50517394      -2.87352723       0.00000000
Si       2.69519679      -2.70109377      -0.08549885       0.00000000
Si      -2.66453901       0.20812104      -2.87390328       0.00000000
