10
Lattice="16.28999089631971 0.0 0.0 0.0 16.28999089631971 0.0 0.0 0.0 34.185847837958455" Properties=species:S:1:pos:R:3:initial_magmoms:R:1 pbc="T T T"
Si       1.00577718       0.00974142      -2.26522392       0.00000000
Si      -0.68100671      -1.79775463       1.58847848       0.00000000
Si      -1.75895836       1.81508067       0.22507975       0.00000000
Si       1.89293058       0.94167603       1.45658941       0.00000000
Si      -0.91038946      -1.53303072      -1.85089121       0.00000000
Si      -2.02434527      -0.38358063       2.94938708       0.00000000
Si       1.40177079       2.28780018      -2.61118489       0.00000000
Si       0.68856201       2.35014201       2.93561359       0.00000000
Si      -3.11123429      -2.03627606      -0.89372112       0.00000000
Si      -3.46327748       0.82490931       1.55121589       0.00000000
