10
Lattice="16.28999089631971 0.0 0.0 0.0 16.28999089631971 0.0 0.0 0.0 34.185847837958455" Properties=species:S:1:pos:R:3:initial_magmoms:R:1 pbc="T T T"
Si      -0.94390776      -1.89122013      -1.03360969       0.00000000
Si       2.34220878       0.15745914      -0.26288932       0.00000000
Si      -1.02817593       1.98467327      -0.82787914       0.00000000
Si      -0.11135844      -0.77028894       2.31496435       0.00000000
Si       1.35711990      -2.53141713       1.83766128       0.00000000
Si       2.58163920       2.51489160      -0.34462772       0.00000000
Si      -0.03073923      -3.61862802       0.28408455       0.00000000
Si       3.27947022      -1.29300246       1.38866410       0.00000000
Si      -0.97842627       3.57080777       0.87980747       0.00000000
Si      -3.28354272       1.59483565      -1.13671426       0.00000000
