10
Lattice="16.28999089631971 0.0 0.0 0.0 16.28999089631971 0.0 0.0 0.0 34.185847837958455" Properties=species:S:1:pos:R:3:initial_magmoms:R:1 pbc="T T T"
Si      -0.07157826       1.97207459      -1.33143696       0.00000000
Si       0.97285509      -0.34720506       2.18977571       0.00000000
Si      -2.40995889      -0.37512612      -0.30343375       0.00000000
Si       1.14054435      -1.53705924      -1.58239541       0.00000000
Si      -0.76419648       0.88160570      -3.34030106       0.00000000
Si       2.93008230      -2.10061179      -0.04157001       0.00000000
Si      -2.35359549      -2.73870738       0.15376803       0.00000000
Si      -0.46814202      -3.26616129      -1.52151038       0.00000000
Si      -1.77489324       3.22614395      -0.22128512       0.00000000
Si      -2.61459387      -0.56185839      -2.65422490       0.00000000
