10
Lattice="16.28999089631971 0.0 0.0 0.0 16.28999089631971 0.0 0.0 0.0 34.185847837958455" Properties=species:S:1:pos:R:3:initial_magmoms:R:1 pbc="T T T"
Si      -0.04567716      -2.16681435      -0.92346282       0.00000000
Si       1.97597700       1.30381902      -0.11551404       0.00000000
Si      -0.35313462      -0.04445541       2.37525595       0.00000000
Si      -1.78953795       0.56355255      -1.54082539       0.00000000
Si      -1.95722721       1.75340673       2.23134572       0.00000000
Si      -2.93008230       2.10061179       0.04157001       0.00000000
Si       0.88966206      -3.44984733       0.77506198       0.00000000
Si       1.42431615       3.00907807      -1.68457697       0.00000000
Si      -3.39822432      -1.16554950      -1.47994037       0.00000000
Si       3.67934085       0.11489337      -1.30323362       0.00000000
