10
Lattice="16.28999089631971 0.0 0.0 0.0 16.28999089631971 0.0 0.0 0.0 34.185847837958455" Properties=species:S:1:pos:R:3:initial_magmoms:R:1 pbc="T T T"
Si      -1.30575753       1.39131261      -1.48530755       0.00000000
Si       1.52184438       1.16734140       1.48838427       0.00000000
Si       1.39387014      -1.30617130      -1.50240048       0.00000000
Si      -1.27705455      -1.62014801       1.35259801       0.00000000
Si       2.09790765      -0.90950328       2.60212563       0.00000000
Si       0.46234278      -2.71307411       2.56435025       0.00000000
Si      -1.28951640       1.01955852       3.46337018       0.00000000
Si       2.61465903      -2.80312523      -0.16405798       0.00000000
Si       2.81478168       2.64561003      -0.04888579       0.00000000
Si      -2.64393216       2.81675277      -0.07708913       0.00000000
