10
Lattice="16.28999089631971 0.0 0.0 0.0 16.28999089631971 0.0 0.0 0.0 34.185847837958455" Properties=species:S:1:pos:R:3:initial_magmoms:R:1 pbc="T T T"
Si       1.19193930      -0.13963788      -1.96808036       0.00000000
Si      -2.19756987      -0.40126994      -0.75721695       0.00000000
Si      -0.24060330       2.31640542       0.55695614       0.00000000
Si       0.99957069      -1.79258206       1.37991252       0.00000000
Si      -0.32342166       1.79391996       2.83014537       0.00000000
Si       0.99056232      -2.52042857      -2.25151538       0.00000000
Si      -3.41093052       1.07623143       0.64279686       0.00000000
Si       3.38375880       0.51153858      -1.38032275       0.00000000
Si       0.36812142       1.66325787      -3.28946667       0.00000000
Si      -2.43700029      -2.75870240      -0.67547854       0.00000000
