10
Lattice="16.28999089631971 0.0 0.0 0.0 16.28999089631971 0.0 0.0 0.0 34.185847837958455" Properties=species:S:1:pos:R:3:initial_magmoms:R:1 pbc="T T T"
Si       1.83404223       1.04940131       1.05890723       0.00000000
Si      -1.55000979      -1.17997545       1.38439087       0.00000000
Si       0.77041926      -1.69666167      -1.54113307       0.00000000
Si      -0.99957069       1.79258206      -1.37991252       0.00000000
Si      -2.49930954      -2.41658193      -0.40383765       0.00000000
Si       0.73748088       2.73059284       2.28091523       0.00000000
Si      -0.00900837      -0.72784650      -3.63142790       0.00000000
Si       0.19236861       1.65294418      -3.34799288       0.00000000
Si       2.76143193       2.54446330      -0.49022533       0.00000000
Si      -0.60437529      -3.61658478      -1.15302092       0.00000000
