10
Lattice="16.28999089631971 0.0 0.0 0.0 16.28999089631971 0.0 0.0 0.0 34.185847837958455" Properties=species:S:1:pos:R:3:initial_magmoms:R:1 pbc="T T T"
Si      -1.80309123      -0.86911223       1.31841697       0.00000000
Si       1.57814262      -1.82627516      -0.08262724       0.00000000
Si       0.87861744       1.86077412       1.42851597       0.00000000
Si      -0.22473684       0.46419984      -2.46158754       0.00000000
Si       1.66687425       2.09248308      -2.07682560       0.00000000
Si      -0.42114537      -2.11093055       2.80123920       0.00000000
Si       2.30865138       0.60434271       2.79464475       0.00000000
Si       3.41827731      -0.86507556       1.31848192       0.00000000
Si      -2.77003305      -2.60567414      -0.00642694       0.00000000
Si       0.73580301      -3.54782258       1.39329086       0.00000000
