10
Lattice="16.28999089631971 0.0 0.0 0.0 16.28999089631971 0.0 0.0 0.0 34.185847837958455" Properties=species:S:1:pos:R:3:initial_magmoms:R:1 pbc="T T T"
Si      -1.33037172       1.27050597      -1.38675653       0.00000000
Si      -1.38864105      -1.31813793       1.34359345       0.00000000
Si       1.32462135       1.39310451       1.34055091       0.00000000
Si       1.29090105      -1.49053500      -1.50011345       0.00000000
Si      -2.15969562      -0.62776773      -2.49780746       0.00000000
Si       0.52654167       2.11633164      -2.62943467       0.00000000
Si       2.21993604       0.36325071      -2.67089700       0.00000000
Si      -0.52155693      -2.50030323      -2.77175048       0.00000000
Si      -0.03494205      -2.67731037       2.70049888       0.00000000
Si       2.68035660       0.03921003       2.69954168       0.00000000
