10
Lattice="16.28999089631971 0.0 0.0 0.0 16.28999089631971 0.0 0.0 0.0 34.185847837958455" Properties=species:S:1:pos:R:3:initial_magmoms:R:1 pbc="T T T"
Si      -1.58037435      -1.59826077       0.61743094       0.00000000
Si       1.23098643      -1.45047789      -1.35755496       0.00000000
Si      -1.38626271       1.30142439      -1.48168385       0.00000000
Si      -3.09627288      -0.28874025       1.89307657       0.00000000
Si      -0.54273393      -2.86008417       2.34015934       0.00000000
Si       2.52392373       0.02779074      -2.89482503       0.00000000
Si      -0.29085795      -2.61781929      -2.84593924       0.00000000
Si      -2.91203298       2.03826996       1.66543288       0.00000000
Si      -2.64000627       2.91846753      -0.42622939       0.00000000
Si       1.80704970      -3.52732257      -0.24381360       0.00000000
