10
Lattice="16.28999089631971 0.0 0.0 0.0 16.28999089631971 0.0 0.0 0.0 34.185847837958455" Properties=species:S:1:pos:R:3:initial_magmoms:R:1 pbc="T T T"
Si      -1.23956590       1.21772637      -1.54848303       0.00000000
Si      -1.37728156      -1.33517727       1.36788935       0.00000000
Si       1.33770662       1.37868786       1.36935934       0.00000000
Si       1.44454133      -1.33222878      -1.47307584       0.00000000
Si       2.69529078      -2.69897607       0.00321347       0.00000000
Si       2.69488353       0.02125845       2.72999103       0.00000000
Si      -0.02108431      -2.69560404       2.73187125       0.00000000
Si      -2.70204952       2.72694600      -0.00457749       0.00000000
Si       2.68910058       2.74266585      -0.00103241       0.00000000
Si      -2.72211880      -2.71264338       0.00132299       0.00000000
