10
Lattice="16.28999089631971 0.0 0.0 0.0 16.28999089631971 0.0 0.0 0.0 34.185847837958455" Properties=species:S:1:pos:R:3:initial_magmoms:R:1 pbc="T T T"
Si      -0.74875356      -1.90710288      -1.13558613       0.00000000
Si       1.92419109       0.84012417      -1.12550130       0.00000000
Si      -1.82035863       1.72110366       0.29047731       0.00000000
Si       2.00269260      -0.38121858       2.59863868       0.00000000
Si      -2.09883618      -0.49420602      -2.57556322       0.00000000
Si       0.63234522       2.22832539      -2.58380201       0.00000000
Si      -0.81103023       3.40138458      -1.15794369       0.00000000
Si      -3.47863176       0.82406223      -1.15927693       0.00000000
Si      -3.14786331      -1.76609664       1.34090644       0.00000000
Si      -1.89411975      -3.38313978       0.28545199       0.00000000
