10
Lattice="16.28999089631971 0.0 0.0 0.0 16.28999089631971 0.0 0.0 0.0 34.185847837958455" Properties=species:S:1:pos:R:3:initial_magmoms:R:1 pbc="T T T"
Si      -2.17670238       0.48009888      -0.68576849       0.00000000
Si      -0.16141761      -0.38698524       2.29588864       0.00000000
Si       0.63680868      -1.83415626      -1.35403382       0.00000000
Si       1.43049006       1.78872345      -0.64560010       0.00000000
Si      -1.69860717       1.86241941      -2.53498459       0.00000000
Si      -1.23232221      -2.56039704       2.22539738       0.00000000
Si       0.63008091      -0.90091845      -3.56750033       0.00000000
Si      -3.12342831       2.00940408       0.78107869       0.00000000
Si       2.80935711      -2.51481762      -0.65924026       0.00000000
Si       1.94887044      -0.34142211       3.28396275       0.00000000
