10
Lattice="16.28999089631971 0.0 0.0 0.0 16.28999089631971 0.0 0.0 0.0 34.185847837958455" Properties=species:S:1:pos:R:3:initial_magmoms:R:1 pbc="T T T"
Si      -0.78343497      -0.51077295      -2.13316391       0.00000000
Si      -1.84572216       0.78644862       1.20939341       0.00000000
Si       1.35721764       1.85868900      -0.60502147       0.00000000
Si       1.12288599      -1.75958064       1.16276389       0.00000000
Si       1.73610675      -1.55377278      -1.78480993       0.00000000
Si       2.49241887       1.34188875       1.43208015       0.00000000
Si      -1.59793497       1.75493799      -2.49044041       0.00000000
Si       1.67870079      -0.41663304       3.00076703       0.00000000
Si      -2.88616446       2.02251753      -0.48441373       0.00000000
Si      -2.64613131      -1.90319328      -1.71250682       0.00000000
