10
Lattice="16.28999089631971 0.0 0.0 0.0 16.28999089631971 0.0 0.0 0.0 34.185847837958455" Properties=species:S:1:pos:R:3:initial_magmoms:R:1 pbc="T T T"
Si       1.34345259       1.34535852      -1.38116372       0.00000000
Si      -1.36042677       1.35418770       1.35810194       0.00000000
Si       1.35511623      -1.36041048       1.35810194       0.00000000
Si      -1.35395964      -1.36278882      -1.38426780       0.00000000
Si      -0.21750408       2.63867049      -2.75924730       0.00000000
Si      -2.71358820       2.71479366       0.00085465       0.00000000
Si      -0.00201996       2.71366965       2.71610131       0.00000000
Si       2.71384884      -0.00241092       2.71640899       0.00000000
Si       2.71437012       2.71593396      -0.00300836       0.00000000
Si      -2.71694394      -0.00171045       2.71589620       0.00000000
