10
Lattice="16.28999089631971 0.0 0.0 0.0 16.28999089631971 0.0 0.0 0.0 34.185847837958455" Properties=species:S:1:pos:R:3:initial_magmoms:R:1 pbc="T T T"
Si      -1.34345259      -1.34535852       1.38116372       0.00000000
Si       1.37091753       1.37057544       1.37815537       0.00000000
Si       1.35612621      -1.42118847      -1.38588137       0.00000000
Si      -1.56095667       1.29331197      -1.37808358       0.00000000
Si       2.27136357       0.34567380      -2.98818120       0.00000000
Si      -2.69741223      -2.70814734      -0.00310408       0.00000000
Si       2.70181053       2.73313620       0.00484756       0.00000000
Si      -2.70387936       0.00882918       2.73926566       0.00000000
Si       0.01166364      -2.70576900       2.73926566       0.00000000
Si      -2.71790505       2.73020400       0.02986477       0.00000000
