10
Lattice="16.28999089631971 0.0 0.0 0.0 16.28999089631971 0.0 0.0 0.0 34.185847837958455" Properties=species:S:1:pos:R:3:initial_magmoms:R:1 pbc="T T T"
Si       1.15694838      -1.43689203      -1.40794835       0.00000000
Si      -1.33913574      -1.36076886       1.35215360       0.00000000
Si       1.37165058       1.35348464       1.35372615       0.00000000
Si      -1.38194586       1.24181832      -1.48282223       0.00000000
Si       1.99928799       0.28465539      -2.88386644       0.00000000
Si       0.42114537       2.11093055      -2.80123920       0.00000000
Si      -0.74479509      -2.29260573      -2.66375592       0.00000000
Si      -2.34888768      -0.49474359      -2.80766615       0.00000000
Si      -2.70128925      -0.00640197       2.71011879       0.00000000
Si      -2.70655092       2.70478250      -0.04247252       0.00000000
