10
Lattice="16.28999089631971 0.0 0.0 0.0 16.28999089631971 0.0 0.0 0.0 34.185847837958455" Properties=species:S:1:pos:R:3:initial_magmoms:R:1 pbc="T T T"
Si       1.35672894       1.35508327      -1.35786263       0.00000000
Si      -1.35733167       1.35700168       1.35693962       0.00000000
Si       1.35780408      -1.35806472       1.35700799       0.00000000
Si      -1.35840681      -1.35948195      -1.35799938       0.00000000
Si      -2.71156824       0.00112401      -2.71524667       0.00000000
Si      -0.00079821       2.71400915       2.71353737       0.00000000
Si      -2.71425609       2.71355140       0.00030767       0.00000000
Si      -0.00078192       2.71537751      -2.71367412       0.00000000
Si       2.71515204       2.71425676      -0.00003419       0.00000000
Si       2.71529865      -0.00250866       2.71422109       0.00000000
