10
Lattice="16.28999089631971 0.0 0.0 0.0 16.28999089631971 0.0 0.0 0.0 34.185847837958455" Properties=species:S:1:pos:R:3:initial_magmoms:R:1 pbc="T T T"
Si       1.01592585      -1.66962726      -1.25701433       0.00000000
Si      -1.73939733       1.09292609      -1.21175224       0.00000000
Si       1.63556487       1.80357083       0.03777538       0.00000000
Si      -0.17980902      -1.59384618       2.16270050       0.00000000
Si      -1.72690290       0.29933757       2.34415908       0.00000000
Si       2.15231625      -0.09005112      -2.72840823       0.00000000
Si      -2.96535015       1.66504067       0.73082546       0.00000000
Si       1.58687406       1.95153290       2.40353993       0.00000000
Si      -0.71421876       2.47080923       2.62174832       0.00000000
Si      -0.46234278       2.71307411      -2.56435025       0.00000000
