10
Lattice="16.28999089631971 0.0 0.0 0.0 16.28999089631971 0.0 0.0 0.0 34.185847837958455" Properties=species:S:1:pos:R:3:initial_magmoms:R:1 pbc="T T T"
Si       1.35208207      -1.35687054      -1.36217005       0.00000000
Si      -1.37788965      -1.34984955       1.35427312       0.00000000
Si      -1.36319607       1.36051716      -1.36114448       0.00000000
Si       1.37442218       1.34669673       1.38486947       0.00000000
Si      -0.15452694       2.53253705       2.74645836       0.00000000
Si       2.71206413      -2.71074873      -0.00249557       0.00000000
Si      -2.71766070      -2.71148178      -0.00485439       0.00000000
Si       2.71136366       0.00289129      -2.71825502       0.00000000
Si      -0.00358158      -2.71187274      -2.71846014       0.00000000
Si       2.71217816       2.71878062      -0.00540137       0.00000000
