10
Lattice="16.28999089631971 0.0 0.0 0.0 16.28999089631971 0.0 0.0 0.0 34.185847837958455" Properties=species:S:1:pos:R:3:initial_magmoms:R:1 pbc="T T T"
Si      -1.33532388      -1.36774165      -1.36401609       0.00000000
Si       1.22078889      -1.49695393       1.33834250       0.00000000
Si       1.38049605       1.34515327      -1.36979350       0.00000000
Si      -1.39387014       1.30617130       1.50240048       0.00000000
Si      -2.69962767       2.69748391       0.01709293       0.00000000
Si       2.73388554       2.67925540      -0.00738415       0.00000000
Si      -2.69462664      -0.01399637      -2.72553661       0.00000000
Si       0.02106297       2.69891743      -2.72444267       0.00000000
Si       2.72000646      -2.72420995      -0.00902507       0.00000000
Si      -2.69407278      -2.75079523       0.01487085       0.00000000
