10
Lattice="16.28999089631971 0.0 0.0 0.0 16.28999089631971 0.0 0.0 0.0 34.185847837958455" Properties=species:S:1:pos:R:3:initial_magmoms:R:1 pbc="T T T"
Si      -1.42016220      -1.15425143      -1.49245239       0.00000000
Si       0.76932783      -1.97282393       1.16454156       0.00000000
Si      -1.93691358       0.73937052       1.27373122       0.00000000
Si       1.30241808       1.50087915      -1.44763472       0.00000000
Si       2.14478605       0.80451423       2.60376656       0.00000000
Si       0.85281408       2.67644700       2.08301324       0.00000000
Si       0.07905537      -2.38150745      -2.83981997       0.00000000
Si       1.16463726      -1.19308679       3.31216609       0.00000000
Si      -2.55655260      -2.73382757      -0.02105849       0.00000000
Si      -2.51297685       2.81621520       0.15998986       0.00000000
