10
Lattice="16.28999089631971 0.0 0.0 0.0 16.28999089631971 0.0 0.0 0.0 34.185847837958455" Properties=species:S:1:pos:R:3:initial_magmoms:R:1 pbc="T T T"
Si      -0.89832834      -1.88491331      -0.99802220       0.00000000
Si       1.36632931      -1.55416115       1.28737244       0.00000000
Si       2.20084483       0.50324534      -0.95717009       0.00000000
Si      -1.83813102       1.44731111       0.86076594       0.00000000
Si       2.43022758       0.23852144       2.48219960       0.00000000
Si       1.44227492       1.50546641      -2.93612155       0.00000000
Si      -0.48083193      -2.59512473       2.50137787       0.00000000
Si       1.30891520      -3.07084160      -1.48530755       0.00000000
Si      -0.90319905       2.77217681      -2.37820821       0.00000000
Si      -0.35204319       2.86118537       2.44493701       0.00000000
