10
Lattice="16.28999089631971 0.0 0.0 0.0 16.28999089631971 0.0 0.0 0.0 34.185847837958455" Properties=species:S:1:pos:R:3:initial_magmoms:R:1 pbc="T T T"
Si       0.82262397       1.79607024      -1.22327288       0.00000000
Si      -1.85473053      -0.92271447      -1.11890343       0.00000000
Si       1.34283587      -0.48948192       1.94623559       0.00000000
Si       1.65382337      -1.84898016      -0.07667890       0.00000000
Si      -0.54175653      -2.19524040      -2.57980226       0.00000000
Si       2.18328421       0.54380907      -2.61409069       0.00000000
Si       0.21812310      -2.54075130       2.34139003       0.00000000
Si       2.56680620       2.75284710       0.05736388       0.00000000
Si       0.70296237       1.07372277       3.56770545       0.00000000
Si       3.42750464      -0.92782953      -1.33051394       0.00000000
