10
Lattice="16.28999089631971 0.0 0.0 0.0 16.28999089631971 0.0 0.0 0.0 34.185847837958455" Properties=species:S:1:pos:R:3:initial_magmoms:R:1 pbc="T T T"
Si       0.48407364      -0.78739344      -2.20396284       0.00000000
Si       0.00408879      -1.81138284       1.64519485       0.00000000
Si       2.32487363       0.79995303       0.17715116       0.00000000
Si      -0.72550773       2.31638913       0.42954542       0.00000000
Si      -1.99013301      -1.70041536      -0.70559629       0.00000000
Si      -1.40418171       1.87261695       2.63549104       0.00000000
Si       0.53354637      -3.49648560       0.00505951       0.00000000
Si       1.59534064      -2.87858961      -2.06694589       0.00000000
Si      -2.90338299       0.06188571       2.76471362       0.00000000
Si      -1.52381547      -2.00213874      -3.15990224       0.00000000
