10
Lattice="16.28999089631971 0.0 0.0 0.0 16.28999089631971 0.0 0.0 0.0 34.185847837958455" Properties=species:S:1:pos:R:3:initial_magmoms:R:1 pbc="T T T"
Si      -1.34395758      -1.32377427       1.37743746       0.00000000
Si      -1.55400084       1.19167866      -1.32589543       0.00000000
Si       1.36754617       1.39328370       1.36820728       0.00000000
Si       1.25389247      -1.47730752      -1.49336857       0.00000000
Si       0.29316040       2.23264224      -2.53990086       0.00000000
Si       2.19081671       0.45203121      -2.56357013       0.00000000
Si      -2.67071292      -2.69084736      -0.00572955       0.00000000
Si       2.72043719      -2.67512751      -0.00218448       0.00000000
Si       0.00823771      -2.67931404       2.72883897       0.00000000
Si      -2.70422145       0.03111390       2.72883897       0.00000000
