10
Lattice="16.28999089631971 0.0 0.0 0.0 16.28999089631971 0.0 0.0 0.0 34.185847837958455" Properties=species:S:1:pos:R:3:initial_magmoms:R:1 pbc="T T T"
Si       1.35698958       1.35487188      -1.35881984       0.00000000
Si       1.35694071      -1.35729909       1.35673450       0.00000000
Si      -1.35806472       1.35801585       1.35670032       0.00000000
Si      -1.35873261      -1.35799956      -1.35830705       0.00000000
Si       2.71259451      -0.00001629       2.71363993       0.00000000
Si       2.71725345      -0.00001629      -2.71022135       0.00000000
Si      -0.00057015       2.71357191       2.71391342       0.00000000
Si       2.71433754       2.71492398      -0.00030767       0.00000000
Si      -0.00149868      -2.71541268       2.71387923       0.00000000
Si       2.71539639      -2.71461447      -0.00041023       0.00000000
