10
Lattice="16.28999089631971 0.0 0.0 0.0 16.28999089631971 0.0 0.0 0.0 34.185847837958455" Properties=species:S:1:pos:R:3:initial_magmoms:R:1 pbc="T T T"
Si      -1.44337545       1.17305919       1.42585832       0.00000000
Si       1.34304534       1.36726857      -1.36555446       0.00000000
Si      -1.36879983      -1.35182565      -1.36374260       0.00000000
Si       1.29184587      -1.38820122       1.45830071       0.00000000
Si      -0.63234522      -2.22832539       2.58380201       0.00000000
Si       0.04720842       2.37658068       2.81233453       0.00000000
Si      -2.45270385      -0.50722173       2.87427932       0.00000000
Si       2.68788258      -2.71375110       0.01562294       0.00000000
Si       2.68281639       2.72890080      -0.00642694       0.00000000
Si       2.69744481       0.00900837      -2.72252826       0.00000000
