10
Lattice="16.28999089631971 0.0 0.0 0.0 16.28999089631971 0.0 0.0 0.0 34.185847837958455" Properties=species:S:1:pos:R:3:initial_magmoms:R:1 pbc="T T T"
Si      -1.01592585       1.66962726       1.25701433       0.00000000
Si      -1.49058387      -1.20352149      -1.38647621       0.00000000
Si       1.13639040       1.57957614      -1.47139390       0.00000000
Si       1.73348406      -1.26736200       1.45744607       0.00000000
Si       3.32588043       0.76100364       1.18560005       0.00000000
Si      -1.19573487       0.07578108       3.41971483       0.00000000
Si      -0.04720842      -2.37658068      -2.81233453       0.00000000
Si       2.55655260       2.73382757       0.02105849       0.00000000
Si       0.61963902       3.47319809       1.29478971       0.00000000
Si      -2.49991227      -2.88380241       0.06194479       0.00000000
