10
Lattice="16.28999089631971 0.0 0.0 0.0 16.28999089631971 0.0 0.0 0.0 34.185847837958455" Properties=species:S:1:pos:R:3:initial_magmoms:R:1 pbc="T T T"
Si      -1.36787130       0.89329473       1.68604696       0.00000000
Si      -1.43599608      -0.09067014      -1.88535056       0.00000000
Si       1.59617565       1.70366589      -0.54177762       0.00000000
Si       0.58847625      -2.26950651       0.56796399       0.00000000
Si      -2.36667636      -2.37325752      -1.31745494       0.00000000
Si       1.52555850      -3.04362360      -1.52759546       0.00000000
Si      -0.58844367      -0.07552044       3.77634179       0.00000000
Si       0.33068700       3.45470894      -1.64451113       0.00000000
Si       2.52275085       2.55089087       1.45819815       0.00000000
Si      -3.66217119       0.19355778       1.25171552       0.00000000
