10
Lattice="16.28999089631971 0.0 0.0 0.0 16.28999089631971 0.0 0.0 0.0 34.185847837958455" Properties=species:S:1:pos:R:3:initial_magmoms:R:1 pbc="T T T"
Si      -1.94038172       1.22362335       0.46116735       0.00000000
Si      -0.69475221      -2.22646833      -0.21861862       0.00000000
Si       1.37974671       1.01568150      -1.66721054       0.00000000
Si       1.48382352      -0.21232386       1.86371091       0.00000000
Si       1.47600432      -3.09327552      -0.55685359       0.00000000
Si      -3.36726422      -0.61506153       1.00451751       0.00000000
Si       2.17743543       2.90685276      -0.47713214       0.00000000
Si      -1.89221382      -2.49158808       1.95570508       0.00000000
Si       2.80513800       1.80346590       1.68214977       0.00000000
Si      -2.11708587       0.95498496      -2.95738516       0.00000000
