10
Lattice="16.28999089631971 0.0 0.0 0.0 16.28999089631971 0.0 0.0 0.0 34.185847837958455" Properties=species:S:1:pos:R:3:initial_magmoms:R:1 pbc="T T T"
Si       1.75681134      -1.10454345      -1.12307410       0.00000000
Si      -1.01983545       1.58563602      -1.43590897       0.00000000
Si      -1.55496195      -1.83614364       0.10207900       0.00000000
Si       0.68175279       1.33436277       1.88829055       0.00000000
Si       1.87049925       2.86656759       0.06109014       0.00000000
Si      -1.01726163      -2.35294389       2.28611152       0.00000000
Si      -0.23348457      -0.43249950       3.49059037       0.00000000
Si       0.60615090      -2.07822933      -2.88778274       0.00000000
Si      -1.16320374      -3.12499215      -1.76693072       0.00000000
Si      -2.72319930       2.77456167      -0.24818939       0.00000000
