10
Lattice="16.28999089631971 0.0 0.0 0.0 16.28999089631971 0.0 0.0 0.0 34.185847837958455" Properties=species:S:1:pos:R:3:initial_magmoms:R:1 pbc="T T T"
Si      -1.35743430       1.35702216      -1.35762333       0.00000000
Si       1.35723393       1.35741312       1.35748659       0.00000000
Si       1.35798327      -1.35786924      -1.35738403       0.00000000
Si      -1.35781222      -1.35946566       1.35635846       0.00000000
Si       0.00063531      -2.71409319       2.71336645       0.00000000
Si      -0.00009774       2.71257822      -2.71524667       0.00000000
Si      -2.71177091      -0.00027693       2.71716108       0.00000000
Si       2.71448415      -0.00114030      -2.71459714       0.00000000
Si      -2.71453799       2.71490769      -0.00013674       0.00000000
Si      -2.71424687      -2.71538010       0.00000000       0.00000000
