10
Lattice="16.28999089631971 0.0 0.0 0.0 16.28999089631971 0.0 0.0 0.0 34.185847837958455" Properties=species:S:1:pos:R:3:initial_magmoms:R:1 pbc="T T T"
Si      -2.14577974      -0.93949317       0.34722585       0.00000000
Si       0.93065910      -1.37187864      -1.72607861       0.00000000
Si      -0.58280733       2.17386792      -0.97255373       0.00000000
Si       0.70282716       0.10052559       2.52260931       0.00000000
Si      -1.10108345      -2.88207567       1.14823490       0.00000000
Si      -2.98898272       0.26420751       2.19999728       0.00000000
Si       1.25311965      -3.55682376      -0.72768036       0.00000000
Si      -1.47132779       1.60464645      -3.21955658       0.00000000
Si       2.74326369      -0.19639224      -2.75462879       0.00000000
Si       2.56972632       1.55242071       2.56958069       0.00000000
