10
Lattice="16.28999089631971 0.0 0.0 0.0 16.28999089631971 0.0 0.0 0.0 34.185847837958455" Properties=species:S:1:pos:R:3:initial_magmoms:R:1 pbc="T T T"
Si       1.62123977      -0.95104278      -1.41755116       0.00000000
Si      -1.55010462      -1.80822258      -0.45508226       0.00000000
Si      -0.70582650       2.22671268      -0.65233471       0.00000000
Si       0.88852046       0.56922147       2.24700285       0.00000000
Si      -2.22877860      -2.25199476       1.75086336       0.00000000
Si      -1.83886116       2.86764273       1.30637872       0.00000000
Si       1.39555322       3.10928859      -1.34825641       0.00000000
Si      -2.98513959      -0.63920331      -2.06533915       0.00000000
Si       3.62681570       0.11215665      -0.79841092       0.00000000
Si       1.50027675      -3.32465868      -0.70747652       0.00000000
