10
Lattice="16.28999089631971 0.0 0.0 0.0 16.28999089631971 0.0 0.0 0.0 34.185847837958455" Properties=species:S:1:pos:R:3:initial_magmoms:R:1 pbc="T T T"
Si       0.27432360      -0.58406166      -2.26015282       0.00000000
Si       1.84808421       0.88545924       1.18653948       0.00000000
Si      -0.93692424      -1.92933873       1.07020156       0.00000000
Si      -1.89765631       1.78061103       0.02366927       0.00000000
Si       0.21796020       1.77951960      -2.71735461       0.00000000
Si      -1.95507041       0.26393058      -2.74901072       0.00000000
Si      -2.19081671      -0.45203121       2.56357013       0.00000000
Si       0.56244483       2.29604077       2.58232791       0.00000000
Si      -0.83375804       3.57329362       1.21849643       0.00000000
Si      -3.74481755       0.73964745       1.23767470       0.00000000
