10
Lattice="16.28999089631971 0.0 0.0 0.0 16.28999089631971 0.0 0.0 0.0 34.185847837958455" Properties=species:S:1:pos:R:3:initial_magmoms:R:1 pbc="T T T"
Si       0.37787913       2.23387118       0.52386423       0.00000000
Si       2.13550497      -1.03542498       0.48014050       0.00000000
Si      -2.18855498      -0.78747489       0.79639396       0.00000000
Si       1.81677483       2.60342612      -1.51805761       0.00000000
Si       1.33938009      -2.73310362       1.95033789       0.00000000
Si      -1.79287740       3.10067837       0.86209919       0.00000000
Si      -2.16630936      -2.99804418       0.05257786       0.00000000
Si       1.12176198       1.30976391      -3.51006807       0.00000000
Si      -3.04795185       2.35892951      -0.96075960       0.00000000
Si       2.85578361      -2.37851919      -1.46903507       0.00000000
