10
Lattice="10.86 0.0 0.0 0.0 10.86 0.0 0.0 0.0 10.86" Properties=species:S:1:pos:R:3:initial_magmoms:R:1 pbc="T T T"
Si       1.37332302      -1.12911420       1.43253174       0.00000000
Si       1.37332302       1.58588580      -1.28246826       0.00000000
Si      -1.34167698       1.58588580       1.43253174       0.00000000
Si      -2.60967972      -2.34666138       0.09030090       0.00000000
Si       0.07552044      -2.45009202      -2.61201462       0.00000000
Si       2.73082302      -2.48661420       0.07503174       0.00000000
Si       0.01582302      -2.48661420       2.79003174       0.00000000
Si       2.73082302       0.22838580      -2.63996826       0.00000000
Si      -2.69917698       0.22838580       2.79003174       0.00000000
Si       2.73082302       0.22838580       2.79003174       0.00000000
