10
Lattice="16.28999089631971 0.0 0.0 0.0 16.28999089631971 0.0 0.0 0.0 34.61538196595647" Properties=species:S:1:pos:R:3:initial_magmoms:R:1 pbc="T T T"
Si      -1.35735050       1.35777150       1.35723527       0.00000000
Si       1.35787413      -1.35743132       1.35716604       0.00000000
Si       1.35808590       1.35700587      -1.35744296       0.00000000
Si      -1.35877090      -1.35950637      -1.35640450       0.00000000
Si      -0.00049685       2.71428867       2.71388208       0.00000000
Si      -2.71383485       0.00025575       2.71492054       0.00000000
Si      -2.71274342      -0.00147587      -2.71609746       0.00000000
Si       0.00082427      -2.71499633       2.71405516       0.00000000
Si       2.71507548      -0.00081939       2.71450516       0.00000000
Si      -2.71531724      -2.71444247       0.00034615       0.00000000
