10
Lattice="16.28999089631971 0.0 0.0 0.0 16.28999089631971 0.0 0.0 0.0 34.61538196595647" Properties=species:S:1:pos:R:3:initial_magmoms:R:1 pbc="T T T"
Si       1.35299853       1.34205165      -1.35283911       0.00000000
Si      -1.35708732       1.35457866       1.35533142       0.00000000
Si       1.35417141      -1.35949824       1.35380835       0.00000000
Si      -1.35014778      -1.36311462      -1.35762989       0.00000000
Si      -0.14428053       2.52659529      -2.70711131       0.00000000
Si       2.59748937      -0.04132773      -2.75949825       0.00000000
Si       2.71318095      -0.00114030       2.71114746       0.00000000
Si      -0.00027693       2.71272483       2.71170131       0.00000000
Si      -2.71378368       2.71134018      -0.00581539       0.00000000
Si      -2.71552671      -0.00171045       2.71149362       0.00000000
