10
Lattice="16.28999089631971 0.0 0.0 0.0 16.28999089631971 0.0 0.0 0.0 34.61538196595647" Properties=species:S:1:pos:R:3:initial_magmoms:R:1 pbc="T T T"
Si      -1.35720135      -1.35661194      -1.35733912       0.00000000
Si       1.35612621      -1.35518369       1.35996989       0.00000000
Si       1.35804843       1.35862347      -1.35685450       0.00000000
Si      -1.35539316       1.36199550       1.36100835       0.00000000
Si      -0.01712079      -2.70257846       2.71924747       0.00000000
Si       2.71373481      -2.71455161       0.00000000       0.00000000
Si      -2.71425120      -2.71417694      -0.00045000       0.00000000
Si       0.00021177      -2.71443758      -2.71426285       0.00000000
Si      -2.71507548       0.00081939      -2.71450516       0.00000000
Si       2.71528236       0.00105396      -2.71453977       0.00000000
