10
Lattice="16.28999089631971 0.0 0.0 0.0 16.28999089631971 0.0 0.0 0.0 34.61538196595647" Properties=species:S:1:pos:R:3:initial_magmoms:R:1 pbc="T T T"
Si      -1.32941061       1.21233145      -1.50722380       0.00000000
Si       1.08185148       1.75481125       1.25466984       0.00000000
Si      -1.77958476      -0.97904889       1.34612373       0.00000000
Si       1.39781232      -1.50809922      -1.46790071       0.00000000
Si      -2.83753881       2.43001546      -0.11540775       0.00000000
Si       0.02575449       2.55691456      -2.87013600       0.00000000
Si       2.85404058       2.60332477      -0.07044234       0.00000000
Si      -2.68763823      -0.15725097      -2.87138215       0.00000000
Si      -3.68100243       0.59836298       1.27921216       0.00000000
Si      -2.78049123      -2.81204856      -0.02246540       0.00000000
