10
Lattice="16.28999089631971 0.0 0.0 0.0 16.28999089631971 0.0 0.0 0.0 34.61538196595647" Properties=species:S:1:pos:R:3:initial_magmoms:R:1 pbc="T T T"
Si       1.35669636      -1.35676152       1.36114681       0.00000000
Si       1.35433431       1.35404109      -1.36709374       0.00000000
Si      -1.36115982       1.35765747       1.36000450       0.00000000
Si      -1.35514881      -1.36907676      -1.37000489       0.00000000
Si       2.56950315      -0.18474489      -2.70129592       0.00000000
Si       2.71378368      -2.71134018       0.00581539       0.00000000
Si      -2.71616854      -2.71329498      -0.00117692       0.00000000
Si      -0.00174303      -2.71305063       2.71730900       0.00000000
Si       2.71350675       0.00138465       2.71751670       0.00000000
Si      -2.71714268       0.00197109       2.71744746       0.00000000
