10
Lattice="16.28999089631971 0.0 0.0 0.0 16.28999089631971 0.0 0.0 0.0 34.61538196595647" Properties=species:S:1:pos:R:3:initial_magmoms:R:1 pbc="T T T"
Si       1.35562122       1.35619137      -1.35740835       0.00000000
Si      -1.35681039      -1.35814617      -1.35636988       0.00000000
Si       1.35723393      -1.35739683       1.35709681       0.00000000
Si      -1.35716877       1.35759231       1.35747758       0.00000000
Si       0.00027693      -2.71272483      -2.71170131       0.00000000
Si       2.71345788      -2.71386513      -0.00055385       0.00000000
Si       0.00021177      -2.71407690       2.71447054       0.00000000
Si       2.71301805       0.00415395      -2.71578593       0.00000000
Si      -2.71524978      -2.71443528      -0.00020769       0.00000000
Si       2.71461447       2.71538010      -0.00048462       0.00000000
