10
Lattice="16.28999089631971 0.0 0.0 0.0 16.28999089631971 0.0 0.0 0.0 34.61538196595647" Properties=species:S:1:pos:R:3:initial_magmoms:R:1 pbc="T T T"
Si       1.34977311      -1.24450713      -1.49476226       0.00000000
Si       1.84937112       0.97194285       1.13410439       0.00000000
Si      -1.04363514      -1.63374039       1.43086223       0.00000000
Si      -1.35203742       1.47189924      -1.48167764       0.00000000
Si      -1.04089842       2.22381306       2.49144351       0.00000000
Si      -2.71580364      -2.57652414       0.00304616       0.00000000
Si       2.91476970      -2.36910357      -0.11904237       0.00000000
Si       1.07391825       3.12460119       1.90253169       0.00000000
Si       0.00325800      -2.60374473      -2.86674369       0.00000000
Si       2.68369605       2.85066855      -0.12340391       0.00000000
