10
Lattice="16.28999089631971 0.0 0.0 0.0 16.28999089631971 0.0 0.0 0.0 34.61538196595647" Properties=species:S:1:pos:R:3:initial_magmoms:R:1 pbc="T T T"
Si      -2.30485581      -0.11955231       0.24718858       0.00000000
Si       1.06740225       1.65131730       1.25961984       0.00000000
Si       0.56523042      -2.22350355       0.46398484       0.00000000
Si       3.19041279       0.71816094       0.84229656       0.00000000
Si      -2.82416472      -0.08441478      -2.12746256       0.00000000
Si      -0.32975847      -2.35584351       2.62097434       0.00000000
Si      -2.52884331      -1.95136281       1.71162775       0.00000000
Si       0.23530905       1.17369450       3.49338630       0.00000000
Si      -1.64866203       1.82734704      -3.01732069       0.00000000
Si      -3.33482364       1.37901366       1.70408159       0.00000000
