10
Lattice="16.28999089631971 0.0 0.0 0.0 16.28999089631971 0.0 0.0 0.0 34.61538196595647" Properties=species:S:1:pos:R:3:initial_magmoms:R:1 pbc="T T T"
Si       0.73381563      -1.37815029       1.71827391       0.00000000
Si       1.99770786       1.08181890      -0.53169256       0.00000000
Si      -1.32610374       1.86873993       0.51732717       0.00000000
Si      -0.87511509      -1.71442476      -1.37385066       0.00000000
Si       1.28329362      -2.51781498      -1.72381237       0.00000000
Si      -1.33490034      -2.46697389       1.83738550       0.00000000
Si      -2.19260142       1.16828622       2.61069357       0.00000000
Si       2.11010886      -2.88334629       0.54121180       0.00000000
Si      -2.25217395      -0.61555023      -2.91267833       0.00000000
Si       2.20069755       3.05413065       0.74187728       0.00000000
