10
Lattice="16.28999089631971 0.0 0.0 0.0 16.28999089631971 0.0 0.0 0.0 34.61538196595647" Properties=species:S:1:pos:R:3:initial_magmoms:R:1 pbc="T T T"
Si      -1.34824185       1.23525441      -1.44401954       0.00000000
Si       1.34695494       1.35848826       1.36220950       0.00000000
Si      -1.37057544      -1.35793440       1.36335181       0.00000000
Si       1.17087633      -1.38083814      -1.53214343       0.00000000
Si      -2.13760638      -0.51350967      -2.87071550       0.00000000
Si       2.67468768      -2.71625976      -0.02446270       0.00000000
Si      -0.49919076      -2.44029087      -2.90055398       0.00000000
Si       2.70135441       2.72376945      -0.02354540       0.00000000
Si       2.70291825       0.00071676       2.72470631       0.00000000
Si      -0.01184283      -2.71441899       2.72408324       0.00000000
