10
Lattice="16.28999089631971 0.0 0.0 0.0 16.28999089631971 0.0 0.0 0.0 34.61538196595647" Properties=species:S:1:pos:R:3:initial_magmoms:R:1 pbc="T T T"
Si      -1.14789114       1.83824505      -0.85344272       0.00000000
Si      -1.32750468      -1.72952559      -0.83727733       0.00000000
Si       2.19929661      -0.54413487      -0.61272722       0.00000000
Si       0.06885783       0.02668302       2.37049730       0.00000000
Si       2.14694055       1.15246863       2.41708963       0.00000000
Si      -0.29282904      -2.28571506       2.63426666       0.00000000
Si      -2.19400236      -2.42997930       1.25608907       0.00000000
Si      -0.55174230       3.44447163       0.72072727       0.00000000
Si       1.84119354       3.07170756       1.00176971       0.00000000
Si       1.99630692      -2.51644662      -1.88629706       0.00000000
