10
Lattice="16.28999089631971 0.0 0.0 0.0 16.28999089631971 0.0 0.0 0.0 34.61538196595647" Properties=species:S:1:pos:R:3:initial_magmoms:R:1 pbc="T T T"
Si      -0.89428842       0.45927537      -2.17367413       0.00000000
Si       1.22601798       2.06947671      -0.02454232       0.00000000
Si      -2.09407950       0.70274571       1.01187741       0.00000000
Si       1.24973622      -1.54524889       1.84984705       0.00000000
Si      -2.81395089      -1.34555367       1.83073934       0.00000000
Si      -0.84233961      -1.97001064       3.04272839       0.00000000
Si      -0.51508980       3.69800430       0.01433078       0.00000000
Si      -1.93116321       2.75168562      -1.73700084       0.00000000
Si       0.87790068       1.30778889      -3.49878630       0.00000000
Si       2.69283474       2.04947259      -2.02756252       0.00000000
