10
Lattice="16.28999089631971 0.0 0.0 0.0 16.28999089631971 0.0 0.0 0.0 34.61538196595647" Properties=species:S:1:pos:R:3:initial_magmoms:R:1 pbc="T T T"
Si      -1.35739683       1.35203742       1.35837758       0.00000000
Si       1.35834165      -1.36172997       1.35720065       0.00000000
Si      -1.35974259      -1.37482713      -1.34875450       0.00000000
Si       1.33315731       1.38821751      -1.36302297       0.00000000
Si       2.59755453       0.09664857      -2.80123058       0.00000000
Si       2.71515204       2.70902700      -0.00090000       0.00000000
Si      -2.70976005       2.71472850      -0.00214615       0.00000000
Si       0.00159642       2.71122615       2.71530131       0.00000000
Si      -2.71301805      -0.00415395       2.71578593       0.00000000
Si      -2.71274112      -2.71687878       0.00408462       0.00000000
