10
Lattice="16.28999089631971 0.0 0.0 0.0 16.28999089631971 0.0 0.0 0.0 34.61538196595647" Properties=species:S:1:pos:R:3:initial_magmoms:R:1 pbc="T T T"
Si      -2.21050413       0.72278730       0.22506934       0.00000000
Si      -0.52636248      -2.16469665       0.74630805       0.00000000
Si       1.04179437       1.49367897       1.53501997       0.00000000
Si       0.76225797      -0.32684256      -2.29939726       0.00000000
Si       0.89199153      -2.36993436       2.58057817       0.00000000
Si      -0.81673173      -3.32210115      -1.30185063       0.00000000
Si       0.41467824       3.66445179       0.60338106       0.00000000
Si       3.62353131      -1.22119614      -0.34397324       0.00000000
Si      -3.69585891      -1.06766289      -0.25217320       0.00000000
Si       2.99520972      -1.65687219       1.89505476       0.00000000
