10
Lattice="16.28999089631971 0.0 0.0 0.0 16.28999089631971 0.0 0.0 0.0 34.61538196595647" Properties=species:S:1:pos:R:3:initial_magmoms:R:1 pbc="T T T"
Si       1.22181516       1.95102072      -0.13005006       0.00000000
Si       0.14537196      -1.30966713       1.91360862       0.00000000
Si      -2.10240369      -0.15240924      -0.98906586       0.00000000
Si      -0.43344432      -3.29308866       0.68701187       0.00000000
Si      -2.44286469      -2.47739949      -0.36328864       0.00000000
Si       2.48567481      -0.88606197       2.29970880       0.00000000
Si      -0.01695789       3.03779178      -1.79588164       0.00000000
Si      -3.47869692       1.35278676       0.18799624       0.00000000
Si       1.36073628       2.95893189       2.02060482       0.00000000
Si       3.51736938       2.08055880      -0.69317341       0.00000000
