10
Lattice="16.28999089631971 0.0 0.0 0.0 16.28999089631971 0.0 0.0 0.0 34.61538196595647" Properties=species:S:1:pos:R:3:initial_magmoms:R:1 pbc="T T T"
Si      -0.46058346       1.97192079       1.16460056       0.00000000
Si      -2.34030285      -0.42360516      -0.38610019       0.00000000
Si       1.79629830      -0.50386599      -1.54062767       0.00000000
Si       0.87078195      -1.75008357       1.56454691       0.00000000
Si       1.89107352       2.16862254       1.67275465       0.00000000
Si       2.81157255      -0.17798454       1.99038558       0.00000000
Si      -2.48567481       0.88606197      -2.29970880       0.00000000
Si       1.06911270      -2.77772193      -2.05148176       0.00000000
Si       0.81814896      -3.66019847       0.15445392       0.00000000
Si       3.82202496      -0.32889510      -0.20942318       0.00000000
