10
Lattice="16.28999089631971 0.0 0.0 0.0 16.28999089631971 0.0 0.0 0.0 34.61538196595647" Properties=species:S:1:pos:R:3:initial_magmoms:R:1 pbc="T T T"
Si       0.03974760       1.11580473      -2.03514329       0.00000000
Si      -1.98401516      -1.27881617       0.18339240       0.00000000
Si       2.06597925      -1.31784701       0.06770772       0.00000000
Si      -1.09185191      -2.66962379       2.00087404       0.00000000
Si       2.26020492       1.04769461      -2.74766671       0.00000000
Si      -0.24263140       3.41766318      -1.68867774       0.00000000
Si      -1.75378859      -0.84367769       3.32313499       0.00000000
Si       3.06598977      -1.08037139      -2.09004332       0.00000000
Si       1.42877961       1.52176782       3.29136840       0.00000000
Si      -3.55969799      -0.19910615       1.72062775       0.00000000
