10
Lattice="16.28999089631971 0.0 0.0 0.0 16.28999089631971 0.0 0.0 0.0 34.61538196595647" Properties=species:S:1:pos:R:3:initial_magmoms:R:1 pbc="T T T"
Si       0.46058346      -1.97192079      -1.16460056       0.00000000
Si       2.35165698       0.19670175       0.50815409       0.00000000
Si      -0.66435507       1.87307307      -1.44370454       0.00000000
Si      -1.43361774      -1.10069901       2.32913189       0.00000000
Si       1.65912021       1.47282777       2.30763573       0.00000000
Si       0.50925798       3.20145741       0.91398506       0.00000000
Si      -1.87971939      -2.39552595      -1.55070075       0.00000000
Si      -3.13028640      -1.98477360       0.55491950       0.00000000
Si       0.48687552      -0.14929785       3.72821861       0.00000000
Si      -0.80327619       0.86516190      -3.59435943       0.00000000
