10
Lattice="16.28999089631971 0.0 0.0 0.0 16.28999089631971 0.0 0.0 0.0 34.61538196595647" Properties=species:S:1:pos:R:3:initial_magmoms:R:1 pbc="T T T"
Si       1.35850455       1.35663120      -1.35720065       0.00000000
Si      -1.35723393      -1.35803214      -1.35723527       0.00000000
Si      -1.35984033       1.35697329       1.35695835       0.00000000
Si       1.35907470      -1.35954711       1.36159681       0.00000000
Si      -2.71230129       2.71340901      -0.00058846       0.00000000
Si      -2.70946683       0.01935252       2.71651285       0.00000000
Si      -2.71288773      -2.71606428      -0.00017308       0.00000000
Si       0.00065160       2.71453302      -2.71447054       0.00000000
Si      -2.71430496      -0.00094482      -2.71474746       0.00000000
Si       0.00045612      -2.71541268      -2.71429746       0.00000000
