10
Lattice="16.28999089631971 0.0 0.0 0.0 16.28999089631971 0.0 0.0 0.0 34.61538196595647" Properties=species:S:1:pos:R:3:initial_magmoms:R:1 pbc="T T T"
Si       1.34962650       1.33762077      -1.35955450       0.00000000
Si       1.48139631      -1.20502017       1.38548144       0.00000000
Si      -1.36552554      -1.37932317      -1.35612758       0.00000000
Si      -1.39225743       1.35674523       1.38572375       0.00000000
Si      -2.22658236      -0.52198047       2.64323204       0.00000000
Si      -0.18373491      -1.98074997       2.99932068       0.00000000
Si       2.70112635       2.69169444       0.01862309       0.00000000
Si      -0.00283446       2.69405649      -2.71710131       0.00000000
Si       2.70946683      -0.01935252      -2.71651285       0.00000000
Si      -2.71836117      -0.01985751      -2.71658208       0.00000000
