10
Lattice="16.28999089631971 0.0 0.0 0.0 16.28999089631971 0.0 0.0 0.0 34.61538196595647" Properties=species:S:1:pos:R:3:initial_magmoms:R:1 pbc="T T T"
Si      -2.12301054       0.93315636       0.41732328       0.00000000
Si       1.15768143       1.28936979       1.63405463       0.00000000
Si       0.62711613      -2.17077282       0.93163891       0.00000000
Si       0.44864289       1.76823063      -2.72862824       0.00000000
Si      -3.19041279      -0.71816094      -0.84229656       0.00000000
Si       2.92250745      -1.69336179       0.78438499       0.00000000
Si       1.51154910      -0.30594249      -3.24401695       0.00000000
Si      -1.90203669       3.11192757      -0.68846572       0.00000000
Si      -0.41467824      -3.66445179      -0.60338106       0.00000000
Si       1.48779828       3.43130931       0.79743500       0.00000000
