10
Lattice="16.28999089631971 0.0 0.0 0.0 16.28999089631971 0.0 0.0 0.0 34.61538196595647" Properties=species:S:1:pos:R:3:initial_magmoms:R:1 pbc="T T T"
Si      -2.26077507       0.18277380       0.61885414       0.00000000
Si       0.93230928      -0.14980284      -2.15709335       0.00000000
Si       0.55778589      -2.16828045       0.79321192       0.00000000
Si       0.94680738       1.62344511       1.45460839       0.00000000
Si       0.11460015      -1.59352038       3.02784377       0.00000000
Si      -3.18047589      -0.98363907      -1.14005824       0.00000000
Si      -2.08324665      -0.81855621       2.76175518       0.00000000
Si       2.84086197      -2.07135495       0.56014642       0.00000000
Si       2.96795655      -1.22852664      -1.65240080       0.00000000
Si       1.57846842       0.29330145       3.24484772       0.00000000
