10
Lattice="16.28999089631971 0.0 0.0 0.0 16.28999089631971 0.0 0.0 0.0 34.61538196595647" Properties=species:S:1:pos:R:3:initial_magmoms:R:1 pbc="T T T"
Si       1.23877305      -1.08677106       1.66583157       0.00000000
Si      -2.19784680       0.77496417      -0.26608859       0.00000000
Si       0.44318574      -0.57476007      -2.23463185       0.00000000
Si       1.46386827       1.88682183       0.21700395       0.00000000
Si      -0.11460015       1.59352038      -3.02784377       0.00000000
Si       3.35487663       0.73427175      -0.55149257       0.00000000
Si       0.01695789      -3.03779178       1.79588164       0.00000000
Si      -1.99485711       2.74727592       1.00748126       0.00000000
Si       0.83220723       3.21696549      -1.57323537       0.00000000
Si       2.72626182      -0.47783457      -2.46769734       0.00000000
