10
Lattice="16.28999089631971 0.0 0.0 0.0 16.28999089631971 0.0 0.0 0.0 34.61538196595647" Properties=species:S:1:pos:R:3:initial_magmoms:R:1 pbc="T T T"
Si      -1.32335073       1.31116581      -1.41037337       0.00000000
Si       1.26425061      -1.37714031      -1.40780491       0.00000000
Si       1.35291708       1.34949618       1.35512027       0.00000000
Si      -1.36200690      -1.36472733       1.34823180       0.00000000
Si      -2.41934193      -0.43530138      -2.68177525       0.00000000
Si      -0.53411652      -2.28082806      -2.86160473       0.00000000
Si       0.07677477       2.47870269      -2.90303936       0.00000000
Si       2.70244584       2.70111006      -0.01051616       0.00000000
Si      -0.00547344       2.70550179       2.71083246       0.00000000
Si       2.70909216      -0.00706986       2.71135169       0.00000000
