10
Lattice="16.28999089631971 0.0 0.0 0.0 16.28999089631971 0.0 0.0 0.0 34.61538196595647" Properties=species:S:1:pos:R:3:initial_magmoms:R:1 pbc="T T T"
Si       1.35708732       1.35616851      -1.35785835       0.00000000
Si       1.35716877      -1.35721764       1.35709681       0.00000000
Si      -1.35853713      -1.35804843      -1.35688912       0.00000000
Si      -1.35856971       1.35800568       1.35761604       0.00000000
Si       2.71425609       0.00068418       2.71388208       0.00000000
Si       2.71547784       0.00016290      -2.71357054       0.00000000
Si       2.71467963      -2.71461447      -0.00024231       0.00000000
Si       0.00172674      -2.71573848       2.71363977       0.00000000
Si       0.00100998       2.71535959       2.71419362       0.00000000
Si       2.71518462       2.71440989      -0.00013846       0.00000000
