10
Lattice="16.28999089631971 0.0 0.0 0.0 16.28999089631971 0.0 0.0 0.0 34.61538196595647" Properties=species:S:1:pos:R:3:initial_magmoms:R:1 pbc="T T T"
Si       2.21651514       0.12427641      -0.84904656       0.00000000
Si      -0.07371225       1.15846335       2.13455872       0.00000000
Si      -1.04544333       1.48626702      -1.63360463       0.00000000
Si      -0.55237761      -2.40627735       0.20866164       0.00000000
Si       2.16925785      -1.48972050       2.38486269       0.00000000
Si      -3.28403142       0.81682947      -1.53958920       0.00000000
Si       3.74138946      -0.57580263       0.82983502       0.00000000
Si       2.76283287       2.41277936      -1.28104677       0.00000000
Si       2.36376045      -1.06192881      -2.99752068       0.00000000
Si       1.28018223       3.14539605       2.18772798       0.00000000
