10
Lattice="16.28999089631971 0.0 0.0 0.0 16.28999089631971 0.0 0.0 0.0 34.61538196595647" Properties=species:S:1:pos:R:3:initial_magmoms:R:1 pbc="T T T"
Si       1.23329961       1.44672372       1.39084479       0.00000000
Si      -1.40012550      -1.16753688       1.49266599       0.00000000
Si       1.69200972      -1.08072747      -1.32334679       0.00000000
Si      -1.31893614       0.05678694      -2.08474716       0.00000000
Si       0.59430807      -0.35380251      -3.33685546       0.00000000
Si      -3.07232658      -1.45337751      -1.55160075       0.00000000
Si       2.66921424      -2.64585438       0.16155008       0.00000000
Si      -0.07677477      -2.47870269       2.90303936       0.00000000
Si       2.80883583       2.58783659       0.14438084       0.00000000
Si      -2.49611670      -2.91400407       0.22126411       0.00000000
