10
Lattice="16.28999089631971 0.0 0.0 0.0 16.28999089631971 0.0 0.0 0.0 34.61538196595647" Properties=species:S:1:pos:R:3:initial_magmoms:R:1 pbc="T T T"
Si       1.35598286       1.35568638      -1.35744296       0.00000000
Si      -1.35709577       1.35739683       1.35702758       0.00000000
Si       1.35808427      -1.35827649       1.35751219       0.00000000
Si      -1.35862868      -1.35842310      -1.35848142       0.00000000
Si      -2.71416228       0.00112401      -2.71460900       0.00000000
Si      -2.71355955       0.00096111       2.71526669       0.00000000
Si      -0.00048218      -2.71599912       2.71360515       0.00000000
Si      -2.71484646      -2.71495656      -0.00010385       0.00000000
Si      -2.71486275       2.71503801      -0.00034615       0.00000000
Si       2.71495982       2.71513575       0.00006923       0.00000000
