10
Lattice="16.28999089631971 0.0 0.0 0.0 16.28999089631971 0.0 0.0 0.0 34.61538196595647" Properties=species:S:1:pos:R:3:initial_magmoms:R:1 pbc="T T T"
Si      -1.17895617       1.79297514      -0.89356197       0.00000000
Si       0.23987025      -1.50394330      -1.78909702       0.00000000
Si       2.14169517       0.97702533       0.42649636       0.00000000
Si      -0.98723916      -0.68326939       2.07945100       0.00000000
Si      -3.28217436       1.07991297      -0.20803856       0.00000000
Si       1.10744307      -1.17777840       3.08035533       0.00000000
Si       2.12491647      -0.35943885      -2.78529365       0.00000000
Si       2.00119392       0.98950347       2.75375902       0.00000000
Si      -0.02819799       3.68531928      -0.14181930       0.00000000
Si       2.10199644       3.00617289      -0.75970421       0.00000000
