10
Lattice="16.28999089631971 0.0 0.0 0.0 16.28999089631971 0.0 0.0 0.0 34.61538196595647" Properties=species:S:1:pos:R:3:initial_magmoms:R:1 pbc="T T T"
Si       0.94750785      -2.09528496       0.04275002       0.00000000
Si       0.94095927       1.71506007       1.36813912       0.00000000
Si      -2.13496740      -0.55700397       1.07858129       0.00000000
Si      -0.30499767       0.32967702      -2.44997426       0.00000000
Si      -3.23118666      -0.54706707      -1.02046203       0.00000000
Si       2.59956539       2.54220111      -0.23375781       0.00000000
Si      -0.04701294      -3.18171393       1.77493932       0.00000000
Si      -2.00241567       2.14479027      -2.44460887       0.00000000
Si      -0.73358757       3.36948876       1.71294313       0.00000000
Si       3.19946093      -2.14957953      -0.27906937       0.00000000
