10
Lattice="16.28999089631971 0.0 0.0 0.0 16.28999089631971 0.0 0.0 0.0 34.61538196595647" Properties=species:S:1:pos:R:3:initial_magmoms:R:1 pbc="T T T"
Si      -2.18561301      -0.86486868      -0.21548087       0.00000000
Si       1.02092266      -0.52061211      -2.10610486       0.00000000
Si       0.35220609       2.38985703       0.09391158       0.00000000
Si       0.67482954      -0.71682516       2.22545877       0.00000000
Si      -3.15881019       1.24975251      -0.07913081       0.00000000
Si       2.45976298       2.10738843       1.07993129       0.00000000
Si      -1.44959823      -1.37779191       3.01548607       0.00000000
Si       3.20830640      -1.09633329      -1.55364306       0.00000000
Si      -2.26145925      -2.70537804       1.21911982       0.00000000
Si       1.66125487       1.24594065       3.11403612       0.00000000
