10
Lattice="16.28999089631971 0.0 0.0 0.0 16.28999089631971 0.0 0.0 0.0 34.61538196595647" Properties=species:S:1:pos:R:3:initial_magmoms:R:1 pbc="T T T"
Si       0.07584624       1.84050936      -1.43460069       0.00000000
Si       0.81186102       1.32758613       1.79636625       0.00000000
Si      -2.04716430      -1.30676751      -0.11886929       0.00000000
Si       1.79709651      -1.53748278      -0.71055034       0.00000000
Si       2.93628879       1.98855288       1.00633895       0.00000000
Si      -1.19133657      -3.21025564      -1.38485836       0.00000000
Si       2.26145925       2.70537804      -1.21911982       0.00000000
Si       0.67531824       0.00524538       3.72440949       0.00000000
Si      -0.23229540       1.15833303      -3.60612866       0.00000000
Si       0.90334566      -3.70476465      -0.38395403       0.00000000
