10
Lattice="16.28999089631971 0.0 0.0 0.0 16.28999089631971 0.0 0.0 0.0 34.61538196595647" Properties=species:S:1:pos:R:3:initial_magmoms:R:1 pbc="T T T"
Si      -2.12442777      -0.66096675       0.79002730       0.00000000
Si       0.98642533       1.96276581       0.88857735       0.00000000
Si       1.49101948      -1.77300360       0.61760799       0.00000000
Si      -0.67482954       0.71682516      -2.22545877       0.00000000
Si       1.78493344       2.82421359      -1.14552748       0.00000000
Si      -3.02557428       1.48717926       1.26581600       0.00000000
Si      -2.93628879      -1.98855288      -1.00633895       0.00000000
Si       2.38891940       1.18410381       2.63852435       0.00000000
Si      -2.86044255      -0.14804352      -2.44093964       0.00000000
Si      -0.32262345       3.10668219      -2.13154718       0.00000000
