10
Lattice="16.28999089631971 0.0 0.0 0.0 16.28999089631971 0.0 0.0 0.0 34.61538196595647" Properties=species:S:1:pos:R:3:initial_magmoms:R:1 pbc="T T T"
Si      -1.35614087       1.35889551      -1.36225450       0.00000000
Si       1.36045935      -1.35721764      -1.36100835       0.00000000
Si      -1.35497939      -1.35529542       1.38264297       0.00000000
Si       1.36669842       1.35562122       1.38143144       0.00000000
Si      -2.71262869       2.71451673      -0.00595385       0.00000000
Si      -2.71546874      -2.71606428      -0.00166154       0.00000000
Si      -2.71250848      -0.00004887      -2.71983593       0.00000000
Si       2.71775844       2.71528236      -0.00186923       0.00000000
Si       0.00267156      -2.71572219      -2.71935131       0.00000000
Si       0.00201996       2.71515204      -2.72004362       0.00000000
