10
Lattice="16.28999089631971 0.0 0.0 0.0 16.28999089631971 0.0 0.0 0.0 34.61538196595647" Properties=species:S:1:pos:R:3:initial_magmoms:R:1 pbc="T T T"
Si      -1.35149985      -1.35407367      -1.37817759       0.00000000
Si       1.36580247       1.36151820      -1.37454297       0.00000000
Si       1.41237558      -1.27052226       1.43750839       0.00000000
Si      -1.23103530       1.35228177       1.55443921       0.00000000
Si       0.63335520       2.15047548       3.04030531       0.00000000
Si      -2.70112635      -2.69169444      -0.01862309       0.00000000
Si       2.72191239      -2.69418681      -0.00993462       0.00000000
Si      -2.69456148       2.72606634       0.02821155       0.00000000
Si       2.39264262       0.32293296       2.99250144       0.00000000
Si      -2.70396081       0.00236205      -2.73572440       0.00000000
