10
Lattice="16.28999089631971 0.0 0.0 0.0 16.28999089631971 0.0 0.0 0.0 34.61538196595647" Properties=species:S:1:pos:R:3:initial_magmoms:R:1 pbc="T T T"
Si      -0.78126840       2.08262763       0.58877336       0.00000000
Si      -1.35733167      -1.64942766       1.02084280       0.00000000
Si       2.43031717      -0.25629057      -0.11291544       0.00000000
Si      -0.81226827       0.36865899      -3.10704381       0.00000000
Si       1.97582129      -2.47671531      -0.92585814       0.00000000
Si       0.31721517      -3.30385635       0.67603879       0.00000000
Si       1.38350385       3.07574748      -0.46623484       0.00000000
Si      -3.17822787      -1.70839746      -0.63045030       0.00000000
Si      -2.90931255       2.22816249      -0.55692719       0.00000000
Si      -1.59353667      -1.04493834       3.33453622       0.00000000
