10
Lattice="16.28999089631971 0.0 0.0 0.0 16.28999089631971 0.0 0.0 0.0 34.61538196595647" Properties=species:S:1:pos:R:3:initial_magmoms:R:1 pbc="T T T"
Si      -1.49403735      -1.62280980      -0.87154657       0.00000000
Si       1.82089620       0.05896980       1.65129310       0.00000000
Si      -1.16501193       2.10347883       0.81176578       0.00000000
Si      -2.55694356       0.45136332      -0.35615786       0.00000000
Si       0.55206810      -1.16572869      -2.50625890       0.00000000
Si       3.17822787       1.70839746       0.63045030       0.00000000
Si       0.26891532       3.93655995       0.07352311       0.00000000
Si       2.36595960       2.07705645      -2.47659350       0.00000000
Si       0.41951637      -3.86752293       1.01693126       0.00000000
Si      -3.00558645      -1.31686731       2.37247038       0.00000000
