10
Lattice="16.28999089631971 0.0 0.0 0.0 16.28999089631971 0.0 0.0 0.0 34.61538196595647" Properties=species:S:1:pos:R:3:initial_magmoms:R:1 pbc="T T T"
Si      -2.25195308       0.05429457       0.32181939       0.00000000
Si       0.00311139      -2.31363612      -0.40825404       0.00000000
Si       1.09185354      -0.26632521       2.14376642       0.00000000
Si      -0.39010315      -0.97340895      -2.34872421       0.00000000
Si       1.51588224       3.34065546      -0.25656935       0.00000000
Si       2.68864821       1.39486383      -2.20700876       0.00000000
Si       1.01647971       0.45208008      -3.63482483       0.00000000
Si      -3.19946093       2.14957953       0.27906937       0.00000000
Si       3.41992260      -0.58888350       1.85763551       0.00000000
Si       2.27778183      -3.25819548      -0.13714622       0.00000000
