10
Lattice="16.28999089631971 0.0 0.0 0.0 16.28999089631971 0.0 0.0 0.0 34.61538196595647" Properties=species:S:1:pos:R:3:initial_magmoms:R:1 pbc="T T T"
Si       1.35654634       1.35493610      -1.35675065       0.00000000
Si      -1.35715248       1.35720073       1.35706219       0.00000000
Si      -1.35749457      -1.35677781      -1.35730450       0.00000000
Si       1.35799460      -1.35808101       1.35664681       0.00000000
Si      -2.71366965      -0.00021177      -2.71353592       0.00000000
Si      -2.71396287       2.71403522      -0.00010385       0.00000000
Si      -2.71489140       0.00030951       2.71391669       0.00000000
Si       0.00148239       2.71469822       2.71457439       0.00000000
Si       0.00257382       2.71296659      -2.71644362       0.00000000
Si      -2.71446786      -2.71498914      -0.00020769       0.00000000
