10
Lattice="16.28999089631971 0.0 0.0 0.0 16.28999089631971 0.0 0.0 0.0 34.61538196595647" Properties=species:S:1:pos:R:3:initial_magmoms:R:1 pbc="T T T"
Si      -1.13738409      -0.30874437       2.00745097       0.00000000
Si       0.22398750       1.83181050      -1.46443917       0.00000000
Si      -0.71935011      -1.74003264      -1.43875454       0.00000000
Si       2.19908484      -0.40448070       0.90934659       0.00000000
Si       1.60871895      -2.06259093      -1.72488545       0.00000000
Si       3.09407373      -0.27214074      -1.24764291       0.00000000
Si      -0.36409779      -2.67994935       2.09734717       0.00000000
Si      -0.80598033       3.33037647      -0.00754616       0.00000000
Si       2.52884331       1.95136281      -1.71162775       0.00000000
Si      -3.32476782       0.26697681       1.45498916       0.00000000
