10
Lattice="16.28999089631971 0.0 0.0 0.0 16.28999089631971 0.0 0.0 0.0 34.61538196595647" Properties=species:S:1:pos:R:3:initial_magmoms:R:1 pbc="T T T"
Si      -1.35723393       1.35726651      -1.36093912       0.00000000
Si       1.35940050      -1.35943308      -1.36069681       0.00000000
Si      -1.36580247      -1.36151820       1.37454297       0.00000000
Si       1.36668213       1.35894438       1.37886990       0.00000000
Si       2.71674736       2.71264338       0.00100385       0.00000000
Si      -2.71598283       2.71512931       0.00034615       0.00000000
Si       0.00050499       2.71415773      -2.71779362       0.00000000
Si      -2.71432125      -0.00063531      -2.71772439       0.00000000
Si       2.71574407      -2.71634121      -0.00401539       0.00000000
Si      -2.71730232      -2.71559187      -0.00363462       0.00000000
