10
Lattice="16.28999089631971 0.0 0.0 0.0 16.28999089631971 0.0 0.0 0.0 34.61538196595647" Properties=species:S:1:pos:R:3:initial_magmoms:R:1 pbc="T T T"
Si      -1.34822556      -1.59353667       1.10807361       0.00000000
Si       2.01701870       0.30797874       1.19381596       0.00000000
Si       0.63732996      -0.61626699      -2.20780491       0.00000000
Si      -1.22562702       2.06011063       0.48987716       0.00000000
Si      -0.94915314       1.88117150       2.82454752       0.00000000
Si       3.28638437       1.16069508      -0.69171956       0.00000000
Si      -3.27072249      -1.42596144      -0.35183094       0.00000000
Si      -1.49547087      -0.40733145       3.25654772       0.00000000
Si       1.42318304       2.11774302       2.66299744       0.00000000
Si       2.18386413       0.99031797      -2.82153598       0.00000000
