10
Lattice="16.28999089631971 0.0 0.0 0.0 16.28999089631971 0.0 0.0 0.0 34.61538196595647" Properties=species:S:1:pos:R:3:initial_magmoms:R:1 pbc="T T T"
Si      -1.23580175       1.24789545      -1.53149612       0.00000000
Si      -1.37347506      -1.33213104       1.35220911       0.00000000
Si       1.34012943       1.37591856       1.35162065       0.00000000
Si       1.30135923      -1.41739290      -1.44439339       0.00000000
Si      -2.06269030      -0.70551990      -2.75374660       0.00000000
Si       2.21151411       0.29356209      -2.91228514       0.00000000
Si       0.57309849       2.22034329      -2.88244666       0.00000000
Si      -0.36417924      -2.52309294      -2.72293889       0.00000000
Si       2.69809641      -2.70019782      -0.01478078       0.00000000
Si      -0.01739772      -2.69658144       2.71231746       0.00000000
