10
Lattice="16.28999089631971 0.0 0.0 0.0 16.28999089631971 0.0 0.0 0.0 34.61538196595647" Properties=species:S:1:pos:R:3:initial_magmoms:R:1 pbc="T T T"
Si      -1.35646378      -1.35643572       1.35823912       0.00000000
Si       1.35709577      -1.35739683      -1.35702758       0.00000000
Si      -1.35776698       1.35764118      -1.35737373       0.00000000
Si       1.35636761       1.35894438       1.35758142       0.00000000
Si       2.71307863      -0.00171045      -2.71447054       0.00000000
Si      -0.00012021       2.71456560       2.71388208       0.00000000
Si      -0.00153256       2.71419093      -2.71457439       0.00000000
Si       2.71452844       2.71520091      -0.00020769       0.00000000
Si      -2.71482172       2.71497285       0.00010385       0.00000000
Si      -2.71483801      -2.71536381       0.00065769       0.00000000
