10
Lattice="16.28999089631971 0.0 0.0 0.0 16.28999089631971 0.0 0.0 0.0 34.61538196595647" Properties=species:S:1:pos:R:3:initial_magmoms:R:1 pbc="T T T"
Si      -1.35648781       1.35562122       1.35630065       0.00000000
Si       1.35816083       1.35625653      -1.35778912       0.00000000
Si      -1.35636761      -1.35894438      -1.35758142       0.00000000
Si       1.35614087      -1.35889551       1.36225450       0.00000000
Si      -0.00585300       2.70516627       2.71817439       0.00000000
Si      -2.71283139       2.71252935      -0.00038077       0.00000000
Si       2.71353770       2.71316466      -0.00006923       0.00000000
Si       0.00132112       2.71318095      -2.71485131       0.00000000
Si      -2.71283139      -2.71538010       0.00065769       0.00000000
Si      -2.71413459      -0.00130320      -2.71495516       0.00000000
