10
Lattice="16.28999089631971 0.0 0.0 0.0 16.28999089631971 0.0 0.0 0.0 34.61538196595647" Properties=species:S:1:pos:R:3:initial_magmoms:R:1 pbc="T T T"
Si      -1.37535167       1.28562309      -1.46170455       0.00000000
Si      -1.63626860      -1.11824334       1.36239296       0.00000000
Si       0.62576406       2.01272724       1.16176210       0.00000000
Si       1.35334062      -1.42281747      -1.43619300       0.00000000
Si       1.66447962      -0.67090365       2.53692815       0.00000000
Si       2.60959284       2.71301805       0.02862694       0.00000000
Si       0.94882734       1.38442194       3.39359010       0.00000000
Si      -2.78044955       2.57300550       0.00135000       0.00000000
Si      -2.74190741      -2.68091046      -0.01910770       0.00000000
Si      -0.00972513       2.65246812      -2.82053213       0.00000000
