10
Lattice="16.28999089631971 0.0 0.0 0.0 16.28999089631971 0.0 0.0 0.0 34.64500226677339" Properties=species:S:1:pos:R:3:initial_magmoms:R:1 pbc="T T T"
Si      -1.36448787       1.40350533      -1.29189207       0.00000000
Si      -1.35884990      -1.35347684       1.35858027       0.00000000
Si       1.35687555       1.36429530       1.36145581       0.00000000
Si       1.41235929      -1.25795228      -1.41750452       0.00000000
Si      -2.71240622      -2.70742019      -0.02529433       0.00000000
Si       2.73411360      -2.69046230      -0.02168778       0.00000000
Si       2.71340901       2.71147179      -0.01213615       0.00000000
Si      -0.00184077      -2.70728987       2.71905563       0.00000000
Si       2.71293660       0.00768298       2.72030285       0.00000000
Si      -2.71716445       0.00934530       2.71905563       0.00000000
