10
Lattice="16.28999089631971 0.0 0.0 0.0 16.28999089631971 0.0 0.0 0.0 34.64500226677339" Properties=species:S:1:pos:R:3:initial_magmoms:R:1 pbc="T T T"
Si       1.63053615      -0.54074655       1.61106280       0.00000000
Si      -0.87424828       2.02536828       0.82825853       0.00000000
Si       0.98002758       1.12886442      -1.83819556       0.00000000
Si      -1.10627249      -2.12074623      -0.12697400       0.00000000
Si       1.13426130       2.95036335       1.55154265       0.00000000
Si       2.27213409       2.63624328      -0.54073950       0.00000000
Si      -2.60972546       1.10713356       2.09304434       0.00000000
Si      -1.08594257      -2.56113009      -2.40710146       0.00000000
Si      -3.59036717       0.92137869      -0.22016911       0.00000000
Si      -2.59884374       1.20010059      -2.38388929       0.00000000
