10
Lattice="16.28999089631971 0.0 0.0 0.0 16.28999089631971 0.0 0.0 0.0 34.64500226677339" Properties=species:S:1:pos:R:3:initial_magmoms:R:1 pbc="T T T"
Si      -1.60955856       0.48925779       1.73838325       0.00000000
Si       0.12264741       0.68611104      -2.31740550       0.00000000
Si      -0.48229477      -1.79183484      -1.63070652       0.00000000
Si       2.02973237       1.38516706       0.33293866       0.00000000
Si       0.00621626       1.41113495       3.17427185       0.00000000
Si      -2.85514083      -1.90115703      -0.58044269       0.00000000
Si       1.13388011       2.94849719       1.82333150       0.00000000
Si       1.86675092      -3.01141827       1.85219323       0.00000000
Si       2.06006435       3.33155654      -1.17751500       0.00000000
Si       2.22868214       0.26102837      -3.49568268       0.00000000
