10
Lattice="16.28999089631971 0.0 0.0 0.0 16.28999089631971 0.0 0.0 0.0 34.64500226677339" Properties=species:S:1:pos:R:3:initial_magmoms:R:1 pbc="T T T"
Si      -0.29531001      -0.18674856      -2.43738121       0.00000000
Si       0.48229477       1.79183484       1.63070652       0.00000000
Si      -2.37284605      -0.10932219       1.05026383       0.00000000
Si       0.60494218       2.47794588      -0.68669897       0.00000000
Si       0.22276249      -2.59776630       0.63085120       0.00000000
Si       2.04478107      -0.07817571      -2.77620952       0.00000000
Si      -1.39893211      -3.30519213      -1.03588615       0.00000000
Si      -3.24986707      -2.02263156      -0.06766173       0.00000000
Si       2.71097691       2.05286321      -1.86497616       0.00000000
Si      -0.76710620      -2.41051275      -3.09754209       0.00000000
