10
Lattice="16.28999089631971 0.0 0.0 0.0 16.28999089631971 0.0 0.0 0.0 34.64500226677339" Properties=species:S:1:pos:R:3:initial_magmoms:R:1 pbc="T T T"
Si      -1.39804038       1.26805921       1.53261954       0.00000000
Si       1.17063198       1.74472090      -1.23779876       0.00000000
Si      -1.61062488      -1.21132766      -1.40399093       0.00000000
Si       1.32028821      -1.42510911       1.51217205       0.00000000
Si      -0.80065350       3.20977834      -1.16692303       0.00000000
Si      -2.73300588       2.63417119       0.15047372       0.00000000
Si      -2.69909010      -2.70136485       0.12725116       0.00000000
Si       2.90509344      -2.61988227       0.12715762       0.00000000
Si      -0.04338027       2.63773870       2.90686975       0.00000000
Si       2.66913279      -0.08096782       2.90309345       0.00000000
