10
Lattice="16.28999089631971 0.0 0.0 0.0 16.28999089631971 0.0 0.0 0.0 34.64500226677339" Properties=species:S:1:pos:R:3:initial_magmoms:R:1 pbc="T T T"
Si       1.35487188       1.35578412      -1.35638724       0.00000000
Si      -1.35930276       1.35267273       1.36064858       0.00000000
Si       1.35562122      -1.36047451       1.35662976       0.00000000
Si      -1.36008468      -1.35874894      -1.35659511       0.00000000
Si       2.71187775      -2.71328588       0.00090077       0.00000000
Si       2.71195920      -0.00126085      -2.71360596       0.00000000
Si      -0.00219915       2.71288773      -2.71384848       0.00000000
Si       2.71269225       2.71573848       0.00069290       0.00000000
Si      -0.00224802      -2.71686968      -2.71370990       0.00000000
Si      -2.71739029      -0.00138628      -2.71343274       0.00000000
