10
Lattice="16.28999089631971 0.0 0.0 0.0 16.28999089631971 0.0 0.0 0.0 34.64500226677339" Properties=species:S:1:pos:R:3:initial_magmoms:R:1 pbc="T T T"
Si      -1.35172791      -1.34591451      -1.37980728       0.00000000
Si      -1.32603858       1.38518431       1.39182910       0.00000000
Si       1.36182771       1.37099572      -1.37149247       0.00000000
Si       1.42457679      -1.27433510       1.45214608       0.00000000
Si       0.45059769       2.35611718       2.65405117       0.00000000
Si       2.30695722       0.68492608       2.81002306       0.00000000
Si      -2.68206705      -2.69657559       0.00017323       0.00000000
Si       2.73468375      -2.68132815      -0.00474637       0.00000000
Si       0.00452862      -2.69872587      -2.73553626       0.00000000
Si      -2.70734913       0.01456000      -2.73643703       0.00000000
