10
Lattice="16.28999089631971 0.0 0.0 0.0 16.28999089631971 0.0 0.0 0.0 34.64500226677339" Properties=species:S:1:pos:R:3:initial_magmoms:R:1 pbc="T T T"
Si      -1.30342806       1.93593618       0.29801648       0.00000000
Si       0.15319116      -1.04280435       2.17619239       0.00000000
Si      -1.49807727      -1.06047900      -1.60465347       0.00000000
Si       2.34675369       0.38797893      -0.62149704       0.00000000
Si       2.10615039       0.07478739       2.81466549       0.00000000
Si      -1.02680757       2.99716452      -1.85745819       0.00000000
Si      -3.43971984       0.92773179       0.90049340       0.00000000
Si      -0.07394031       3.34474425       1.69653206       0.00000000
Si       2.61188973      -1.04065407      -2.48654249       0.00000000
Si      -1.70781102      -3.25693205      -0.89224789       0.00000000
