10
Lattice="16.28999089631971 0.0 0.0 0.0 16.28999089631971 0.0 0.0 0.0 34.64500226677339" Properties=species:S:1:pos:R:3:initial_magmoms:R:1 pbc="T T T"
Si      -1.00085760      -2.11278531      -0.45433481       0.00000000
Si       1.84842630       0.69670701       1.33279398       0.00000000
Si       1.25995005       0.34450092      -2.03650366       0.00000000
Si      -1.24207992       1.44653571       1.56165899       0.00000000
Si       1.70676846       2.93457834       0.19435857       0.00000000
Si      -0.67173444       3.33892872       0.34364397       0.00000000
Si       2.67545331      -1.50365497      -1.72757400       0.00000000
Si       0.89989218      -3.12547175      -1.55899133       0.00000000
Si      -0.57765969      -3.18900275       1.68530708       0.00000000
Si      -3.45730815       0.96642054       0.89176286       0.00000000
