10
Lattice="16.28999089631971 0.0 0.0 0.0 16.28999089631971 0.0 0.0 0.0 34.64500226677339" Properties=species:S:1:pos:R:3:initial_magmoms:R:1 pbc="T T T"
Si      -1.50703677       1.16421372      -1.43174016       0.00000000
Si       1.19742903      -1.55825253      -1.43510073       0.00000000
Si      -1.25604045      -1.02123639       1.82180846       0.00000000
Si       2.03841657       0.87636942       1.35337312       0.00000000
Si      -0.72868428       2.15034516       2.14438826       0.00000000
Si       2.66962149       2.63091645      -0.05123999       0.00000000
Si      -0.14848335       2.51175510      -2.81088918       0.00000000
Si       2.56922622      -0.20846313      -2.80804829       0.00000000
Si       2.59004484      -2.84700330      -0.02203423       0.00000000
Si      -2.79471240       2.65170249      -0.05179431       0.00000000
