10
Lattice="16.28999089631971 0.0 0.0 0.0 16.28999089631971 0.0 0.0 0.0 34.64500226677339" Properties=species:S:1:pos:R:3:initial_magmoms:R:1 pbc="T T T"
Si      -0.56454624      -1.33524243      -1.86147701       0.00000000
Si      -2.06490411       0.82257984       0.84028035       0.00000000
Si       1.68305022       1.35775521      -1.07649011       0.00000000
Si       0.58424085      -1.97301222       1.31103691       0.00000000
Si       1.43221680      -2.41355898      -2.35884094       0.00000000
Si       2.27682072      -2.89219176      -0.16307412       0.00000000
Si      -3.69820467      -0.09176157      -0.65517200       0.00000000
Si      -1.37647242      -3.38845032       1.11643582       0.00000000
Si      -1.53552798      -0.04471605      -3.54706125       0.00000000
Si       3.78035514       0.79405605      -0.20911735       0.00000000
