10
Lattice="16.28999089631971 0.0 0.0 0.0 16.28999089631971 0.0 0.0 0.0 34.64500226677339" Properties=species:S:1:pos:R:3:initial_magmoms:R:1 pbc="T T T"
Si       1.69257987      -0.91917954      -1.47411103       0.00000000
Si      -1.96071327      -1.41543810      -0.19460109       0.00000000
Si      -0.58424085       1.97301222      -1.31103691       0.00000000
Si       0.45628290       0.22411782       2.50483506       0.00000000
Si      -1.14878709       0.63776979      -3.17251392       0.00000000
Si      -2.39168151      -1.25102313      -2.48966054       0.00000000
Si       0.84797595      -0.44054676      -3.66987785       0.00000000
Si      -1.03063572       2.02401621       3.08351086       0.00000000
Si      -2.64914496       2.79559206      -0.47075655       0.00000000
Si      -3.66669981      -0.48861855       1.24943806       0.00000000
