10
Lattice="16.28999089631971 0.0 0.0 0.0 16.28999089631971 0.0 0.0 0.0 34.64500226677339" Properties=species:S:1:pos:R:3:initial_magmoms:R:1 pbc="T T T"
Si      -1.48691862       1.79989839       0.57867580       0.00000000
Si      -1.11674466      -1.90679337       1.07652476       0.00000000
Si       2.34391923      -0.38442771       0.80556604       0.00000000
Si      -0.45628290      -0.22411782      -2.50483506       0.00000000
Si      -0.47446254      -3.81710538      -0.36169403       0.00000000
Si      -0.61509411       3.89549286      -0.29458662       0.00000000
Si      -2.41699617      -1.63955592      -2.69943615       0.00000000
Si      -3.55615587       1.58421879      -0.86033982       0.00000000
Si      -1.73102427       2.04279858       3.01931363       0.00000000
Si       2.20156092      -1.74384450       2.90851886       0.00000000
