10
Lattice="16.28999089631971 0.0 0.0 0.0 16.28999089631971 0.0 0.0 0.0 34.64500226677339" Properties=species:S:1:pos:R:3:initial_magmoms:R:1 pbc="T T T"
Si       1.17340128      -1.53080388       1.49922867       0.00000000
Si      -1.51552386       1.20541113       1.50887384       0.00000000
Si       1.90837350       0.92181852      -1.27697188       0.00000000
Si      -2.03126526      -0.83777841      -1.28022852       0.00000000
Si       2.53594575      -0.17008389       2.88682068       0.00000000
Si       2.62269000      -2.81714373       0.04591851       0.00000000
Si      -0.18254574       2.53949697       2.89194814       0.00000000
Si      -2.83727817       2.63792115       0.11305710       0.00000000
Si       2.76690537       2.71940373       0.11296356       0.00000000
Si       3.61299168      -0.95806377      -1.28594494       0.00000000
