10
Lattice="16.28999089631971 0.0 0.0 0.0 16.28999089631971 0.0 0.0 0.0 34.64500226677339" Properties=species:S:1:pos:R:3:initial_magmoms:R:1 pbc="T T T"
Si       0.03826521      -1.91578545       1.51824878       0.00000000
Si      -2.12151186       1.32177453      -0.26364861       0.00000000
Si      -0.43096824      -1.30888521      -2.15426209       0.00000000
Si       1.82299761       1.54088480       1.04187974       0.00000000
Si       1.25530740       2.43127340      -2.23706369       0.00000000
Si      -1.78566093      -1.22039793       2.83479425       0.00000000
Si       0.98212410       3.50545229       0.03318993       0.00000000
Si       0.37292697       0.47201222      -3.59494067       0.00000000
Si      -3.30999768       0.23389182       1.58393574       0.00000000
Si      -0.57058983      -3.67846119       0.04735974       0.00000000
