10
Lattice="16.28999089631971 0.0 0.0 0.0 16.28999089631971 0.0 0.0 0.0 34.64500226677339" Properties=species:S:1:pos:R:3:initial_magmoms:R:1 pbc="T T T"
Si       0.51946529      -1.37986074       1.84668359       0.00000000
Si       0.99750838       2.11093965       0.39273597       0.00000000
Si      -2.32555130       0.43077276      -0.33286937       0.00000000
Si       1.30767975      -0.68973489      -1.91150442       0.00000000
Si       1.10646567       3.07450944      -1.77088028       0.00000000
Si       2.73497697      -2.18232243       1.37682780       0.00000000
Si      -1.06692074      -3.16748299       1.89144496       0.00000000
Si       3.15538929      -2.00171520      -0.96302767       0.00000000
Si       3.20624667       1.87532109       1.12402308       0.00000000
Si      -2.57125337       1.87154181      -2.26186953       0.00000000
