10
Lattice="16.28999089631971 0.0 0.0 0.0 16.28999089631971 0.0 0.0 0.0 34.64500226677339" Properties=species:S:1:pos:R:3:initial_magmoms:R:1 pbc="T T T"
Si      -2.32155306       0.02031363      -0.25890225       0.00000000
Si       0.83460186       2.11001112      -0.56935629       0.00000000
Si       0.37462113       0.04316850       2.38711128       0.00000000
Si       0.38318967      -1.31165451      -2.02008192       0.00000000
Si       2.65852800       1.41462360      -1.88590175       0.00000000
Si       0.07123617       2.39269149       2.88579172       0.00000000
Si      -3.05624835      -2.17681641       0.17966908       0.00000000
Si       1.71023823       3.11709150       1.38192062       0.00000000
Si      -2.95002126       0.25816392      -2.48307799       0.00000000
Si      -1.12220181      -1.34638479       3.47375238       0.00000000
