10
Lattice="16.28999089631971 0.0 0.0 0.0 16.28999089631971 0.0 0.0 0.0 34.64500226677339" Properties=species:S:1:pos:R:3:initial_magmoms:R:1 pbc="T T T"
Si       0.61494750      -1.71352881       1.54984504       0.00000000
Si       1.77556113       1.62181678      -0.16858268       0.00000000
Si      -0.41532984      -0.56716893      -2.30725451       0.00000000
Si      -1.90074978       1.01268644       1.10465651       0.00000000
Si      -1.71225819      -2.11299219       1.96974270       0.00000000
Si       0.36005787       3.46997267      -0.47751233       0.00000000
Si      -1.47755187      -0.06353100       3.24429841       0.00000000
Si      -0.89989218       3.12547175       1.55899133       0.00000000
Si       1.06070706      -0.55281744       3.51983026       0.00000000
Si       2.30182587      -3.02875083       0.49441910       0.00000000
