10
Lattice="16.28999089631971 0.0 0.0 0.0 16.28999089631971 0.0 0.0 0.0 34.64500226677339" Properties=species:S:1:pos:R:3:initial_magmoms:R:1 pbc="T T T"
Si      -1.35301482       1.36077212       1.36096038       0.00000000
Si       1.36358703      -1.35596724       1.36099503       0.00000000
Si      -1.34884458      -1.34414130      -1.39092140       0.00000000
Si       1.38522015       1.35709058      -1.38060411       0.00000000
Si       0.23596065      -2.53891446      -2.77593582       0.00000000
Si      -2.71181259       0.00172348       2.71859485       0.00000000
Si      -2.71251306       2.71870652       0.00377631       0.00000000
Si       2.71655298      -2.71523742       0.00284089       0.00000000
Si      -2.71349046      -2.71882122       0.00304876       0.00000000
Si       0.00386073      -2.71406454       2.71838698       0.00000000
