10
Lattice="16.28999089631971 0.0 0.0 0.0 16.28999089631971 0.0 0.0 0.0 34.64500226677339" Properties=species:S:1:pos:R:3:initial_magmoms:R:1 pbc="T T T"
Si       1.28252799       1.92552687      -0.55511718       0.00000000
Si      -0.86237631      -0.07718202      -2.23027327       0.00000000
Si       1.59531228      -1.73608394       0.57794825       0.00000000
Si      -1.56447531       0.11155392       1.88344196       0.00000000
Si       2.10509154      -0.63786753       2.67400670       0.00000000
Si       1.13000472      -0.93489939      -3.23865127       0.00000000
Si       0.10046043      -3.59239202       0.56422882       0.00000000
Si      -0.36711144       3.63122019      -0.46483226       0.00000000
Si       2.42751951       1.00681974      -2.60627569       0.00000000
Si      -0.09089820      -0.60022134       3.65795996       0.00000000
