10
Lattice="16.28999089631971 0.0 0.0 0.0 16.28999089631971 0.0 0.0 0.0 34.64500226677339" Properties=species:S:1:pos:R:3:initial_magmoms:R:1 pbc="T T T"
Si       1.47357711      -0.71177526       1.77451801       0.00000000
Si      -2.05105761      -1.28267460      -0.06308858       0.00000000
Si      -1.08765072       2.16598356       0.18417293       0.00000000
Si       1.56447531      -0.11155392      -1.88344196       0.00000000
Si      -2.57551416       2.09057715      -1.68960306       0.00000000
Si       3.66956685      -0.74942145       0.79056475       0.00000000
Si      -3.39263685      -0.26937144      -1.79686405       0.00000000
Si       1.24211250       0.83531862       3.56854116       0.00000000
Si       3.15978759      -1.84763786      -1.30549370       0.00000000
Si       0.50569047       3.89721960      -0.12285125       0.00000000
