10
Lattice="16.28999089631971 0.0 0.0 0.0 16.28999089631971 0.0 0.0 0.0 34.64500226677339" Properties=species:S:1:pos:R:3:initial_magmoms:R:1 pbc="T T T"
Si       1.63706355      -0.98184717       1.36840906       0.00000000
Si      -0.95949729      -1.80929772      -1.18669593       0.00000000
Si       1.87584237       1.08051570      -1.08054358       0.00000000
Si      -1.51112556       1.91407500       0.18871143       0.00000000
Si       0.39583071       2.20498182      -2.60097500       0.00000000
Si      -2.35211310      -0.52054695      -2.59976242       0.00000000
Si      -0.96184305      -0.20789298       3.51179262       0.00000000
Si       0.46856556      -2.05809489       3.08888084       0.00000000
Si      -0.28893573       3.26482551       1.91670118       0.00000000
Si       2.35571319       0.70441218       2.89784819       0.00000000
