10
Lattice="16.28999089631971 0.0 0.0 0.0 16.28999089631971 0.0 0.0 0.0 34.64500226677339" Properties=species:S:1:pos:R:3:initial_magmoms:R:1 pbc="T T T"
Si       1.61130906       0.88707195      -1.41282398       0.00000000
Si      -1.36435266       1.62878823       1.19154623       0.00000000
Si       1.79304030      -0.20766492       1.69424549       0.00000000
Si      -1.15007400      -1.77254748      -1.30497403       0.00000000
Si       0.09661599       2.10486348      -2.77077025       0.00000000
Si       0.99276147      -2.40850908       2.68346480       0.00000000
Si       3.03774291       2.23239789       0.07240810       0.00000000
Si      -2.61573417      -0.61190127      -2.77482372       0.00000000
Si      -2.53285065       0.55254051       2.91201800       0.00000000
Si      -3.00141621       2.61063540      -0.17686284       0.00000000
