10
Lattice="16.28999089631971 0.0 0.0 0.0 16.28999089631971 0.0 0.0 0.0 34.64500226677339" Properties=species:S:1:pos:R:3:initial_magmoms:R:1 pbc="T T T"
Si       0.92556522      -1.15833303       1.76367412       0.00000000
Si       1.53443655       1.65222954      -0.47636905       0.00000000
Si      -1.95480000       1.10340315       0.67907707       0.00000000
Si      -0.71864964      -1.68625935      -1.52943912       0.00000000
Si      -1.88714763      -2.76250707       0.19103265       0.00000000
Si       0.60839892       2.15528103      -2.60062855       0.00000000
Si      -3.31755624      -0.91230516       0.61394443       0.00000000
Si      -0.79897563      -2.69860140       2.35031827       0.00000000
Si       3.58518465       0.65552589      -0.90607125       0.00000000
Si      -2.35571319      -0.70441218      -2.89784819       0.00000000
