10
Lattice="16.28999089631971 0.0 0.0 0.0 16.28999089631971 0.0 0.0 0.0 34.64500226677339" Properties=species:S:1:pos:R:3:initial_magmoms:R:1 pbc="T T T"
Si       0.69167340      -0.37755333      -2.22542296       0.00000000
Si      -0.71226396       2.25676773       0.01455091       0.00000000
Si      -1.59334119      -1.73123604       0.30702418       0.00000000
Si       1.50799788       0.32589774       1.82184311       0.00000000
Si      -1.34433225       2.51590905       2.25123351       0.00000000
Si      -1.65481965      -0.63478872      -3.18522864       0.00000000
Si       3.44704545       0.95871537       0.73901296       0.00000000
Si      -2.77653276      -1.21270905       2.31622757       0.00000000
Si       0.75849498       2.15073612       3.13592878       0.00000000
Si       2.34131283      -2.08324665      -2.31570789       0.00000000
