10
Lattice="16.28999089631971 0.0 0.0 0.0 16.28999089631971 0.0 0.0 0.0 34.64500226677339" Properties=species:S:1:pos:R:3:initial_magmoms:R:1 pbc="T T T"
Si       1.10824128      -1.34671059       1.57517055       0.00000000
Si      -0.41762673       2.32844373       0.21712035       0.00000000
Si      -2.14161372      -1.03162941      -0.08855268       0.00000000
Si       1.18319157      -0.51852699      -2.00920338       0.00000000
Si      -1.36239786      -3.26707353      -0.55407783       0.00000000
Si      -0.19670175      -3.33979209       1.45422478       0.00000000
Si      -1.26223065       2.80707651      -1.97864648       0.00000000
Si       0.25011666      -0.74971467       3.68508702       0.00000000
Si       2.77653276       1.21270905      -2.31622757       0.00000000
Si      -2.02263156       0.94503177      -3.16981161       0.00000000
