10
Lattice="16.28999089631971 0.0 0.0 0.0 16.28999089631971 0.0 0.0 0.0 34.64500226677339" Properties=species:S:1:pos:R:3:initial_magmoms:R:1 pbc="T T T"
Si       1.43751105       1.77432309       0.34842498       0.00000000
Si       0.85812462      -0.59699592      -2.10991646       0.00000000
Si      -2.37850290       0.40435038       0.14928540       0.00000000
Si       0.14165784      -2.23787133       1.13843541       0.00000000
Si      -1.70676846      -2.93457834      -0.19435857       0.00000000
Si      -0.44681841      -2.59007742      -2.23086223       0.00000000
Si       3.27057588       0.17863614       1.13018990       0.00000000
Si      -2.94884838      -1.48804263       1.36730042       0.00000000
Si      -0.25011666       0.74971467      -3.68508702       0.00000000
Si       1.94277798      -3.50814924       0.10005482       0.00000000
