10
Lattice="16.28999089631971 0.0 0.0 0.0 16.28999089631971 0.0 0.0 0.0 34.64500226677339" Properties=species:S:1:pos:R:3:initial_magmoms:R:1 pbc="T T T"
Si       1.35485559       1.35627282       1.35662976       0.00000000
Si      -1.35957969      -1.35925389       1.35617937       0.00000000
Si       1.35290079      -1.36028016      -1.36189580       0.00000000
Si      -1.35812988       1.35573525      -1.36407844       0.00000000
Si       2.71287144      -0.00177561       2.71364061       0.00000000
Si      -0.00215028       2.71332756       2.71395241       0.00000000
Si       2.71401174      -2.71523349       0.00048503       0.00000000
Si       2.71368594       2.71660185      -0.00062361       0.00000000
Si      -2.71510317      -2.71542897      -0.00090077       0.00000000
Si      -2.71564074       2.71492398      -0.00083148       0.00000000
