10
Lattice="16.28999089631971 0.0 0.0 0.0 16.28999089631971 0.0 0.0 0.0 34.64500226677339" Properties=species:S:1:pos:R:3:initial_magmoms:R:1 pbc="T T T"
Si      -1.33183782      -1.34389242       1.37613490       0.00000000
Si      -1.34959392       1.35536058      -1.35725337       0.00000000
Si       1.36521603      -1.35682668      -1.35735730       0.00000000
Si       1.35123921       1.37565792       1.37228931       0.00000000
Si      -2.60758917       0.11974779       2.76120822       0.00000000
Si       0.14817384      -2.46835854       2.89656632       0.00000000
Si      -2.70778896       2.71021617       0.00547391       0.00000000
Si      -2.70923877      -0.00206883      -2.71426422       0.00000000
Si       0.00542457       2.71278999      -2.71416028       0.00000000
Si      -2.70798444      -2.71963179       0.00439992       0.00000000
