10
Lattice="16.28999089631971 0.0 0.0 0.0 16.28999089631971 0.0 0.0 0.0 34.64500226677339" Properties=species:S:1:pos:R:3:initial_magmoms:R:1 pbc="T T T"
Si       1.77812029       0.29773233       1.50795921       0.00000000
Si       0.44212852      -2.00225996      -1.18018266       0.00000000
Si      -0.15190751       1.86828381      -1.47972352       0.00000000
Si      -2.13878482      -0.33109425       1.02479974       0.00000000
Si       3.44100349      -0.10225233      -0.20402453       0.00000000
Si      -0.42577662       0.68253471      -3.51501460       0.00000000
Si      -2.18677516       2.83617045      -0.64706507       0.00000000
Si      -3.59322118       0.84848094      -0.41428517       0.00000000
Si      -1.76069392       0.42780798       3.28098748       0.00000000
Si      -1.56638106      -2.92725503      -1.90346678       0.00000000
