10
Lattice="16.28999089631971 0.0 0.0 0.0 16.28999089631971 0.0 0.0 0.0 34.64500226677339" Properties=species:S:1:pos:R:3:initial_magmoms:R:1 pbc="T T T"
Si      -1.35297463       1.33697894       1.30634597       0.00000000
Si       1.12766385       1.53736223      -1.35094035       0.00000000
Si       1.36448787      -1.40350533       1.29189207       0.00000000
Si      -1.61577482      -0.92187716      -1.43588860       0.00000000
Si      -0.00621626      -1.41113495      -3.17427185       0.00000000
Si       2.02351611      -0.02596789      -2.84133319       0.00000000
Si      -2.61524777      -2.59774742      -0.08593351       0.00000000
Si      -3.27611678       0.92251247      -1.51758156       0.00000000
Si       0.00103767       2.67401327       2.65223924       0.00000000
Si      -2.58846701       2.76235394      -0.13291909       0.00000000
