10
Lattice="16.28999089631971 0.0 0.0 0.0 16.28999089631971 0.0 0.0 0.0 34.64500226677339" Properties=species:S:1:pos:R:3:initial_magmoms:R:1 pbc="T T T"
Si      -1.35501849      -1.35742941       1.35690692       0.00000000
Si       1.35700587      -1.35705474      -1.35732266       0.00000000
Si      -1.35711990       1.35674523      -1.35756517       0.00000000
Si       1.36023129       1.35954711       1.35739195       0.00000000
Si      -0.00542457      -2.71278999       2.71416028       0.00000000
Si       0.00215028      -2.71332756      -2.71395241       0.00000000
Si      -2.71349046       0.00159642      -2.71478389       0.00000000
Si      -2.71466334      -2.71485882      -0.00010394       0.00000000
Si      -2.71492398       2.71477236      -0.00017323       0.00000000
Si       0.00260640       2.71484253      -2.71495712       0.00000000
