10
Lattice="16.28999089631971 0.0 0.0 0.0 16.28999089631971 0.0 0.0 0.0 34.64500226677339" Properties=species:S:1:pos:R:3:initial_magmoms:R:1 pbc="T T T"
Si       2.21522823       0.48011517       0.66989614       0.00000000
Si      -1.07675271       1.83739797       1.07849952       0.00000000
Si      -0.39170934       0.64943343      -2.33140209       0.00000000
Si      -0.03033198      -1.94638947       1.51045365       0.00000000
Si      -0.92618424      -0.38305935       3.00084649       0.00000000
Si      -1.93741694      -2.64544550      -1.13989050       0.00000000
Si      -2.80060449       1.13572251      -2.04135396       0.00000000
Si       1.45494135       2.24415927      -2.53826751       0.00000000
Si       3.45730815      -0.96642054      -0.89176286       0.00000000
Si       2.78557371       2.37250818      -0.54811889       0.00000000
