10
Lattice="16.28999089631971 0.0 0.0 0.0 16.28999089631971 0.0 0.0 0.0 34.64500226677339" Properties=species:S:1:pos:R:3:initial_magmoms:R:1 pbc="T T T"
Si       0.44575956       1.16071137       1.96998522       0.00000000
Si       1.68687837      -1.31522202      -1.05542594       0.00000000
Si      -0.61494750       1.71352881      -1.54984504       0.00000000
Si      -2.32720569      -0.39946338       0.41989766       0.00000000
Si      -2.09249937       1.64999781       1.69445336       0.00000000
Si      -2.51569728       2.72621525      -0.44518853       0.00000000
Si       0.49650291      -0.49256073       3.73705455       0.00000000
Si       1.02771981      -1.75200579      -3.31050504       0.00000000
Si       1.16061363       3.33534559      -1.71842772       0.00000000
Si       2.71969695       2.39772510       1.64283228       0.00000000
