10
Lattice="16.28999089631971 0.0 0.0 0.0 16.28999089631971 0.0 0.0 0.0 34.64500226677339" Properties=species:S:1:pos:R:3:initial_magmoms:R:1 pbc="T T T"
Si       0.46061604      -0.14481810       2.29263365       0.00000000
Si      -0.58499019       1.86770456      -1.33927260       0.00000000
Si      -2.27393739      -1.23701373       0.32715294       0.00000000
Si       2.34939267      -0.10176363      -1.21008132       0.00000000
Si       2.26758429      -1.97651457       2.07450925       0.00000000
Si      -1.55908332       0.93762049      -3.36126000       0.00000000
Si      -1.36466217      -1.09270062       3.48415771       0.00000000
Si       1.25307567       3.37632146      -1.61771464       0.00000000
Si      -2.38611033       3.13798247      -0.30089201       0.00000000
Si      -2.71969695      -2.39772510      -1.64283228       0.00000000
