10
Lattice="16.28999089631971 0.0 0.0 0.0 16.28999089631971 0.0 0.0 0.0 34.64500226677339" Properties=species:S:1:pos:R:3:initial_magmoms:R:1 pbc="T T T"
Si       1.64434518       1.26949061       1.06131559       0.00000000
Si      -1.38652335       1.33059929      -1.37197750       0.00000000
Si      -1.16826993      -1.21273139       1.68000639       0.00000000
Si       1.35408996      -1.40273795      -1.36785474       0.00000000
Si      -2.59880886      -2.52002018       0.11103729       0.00000000
Si      -0.02130732       2.66858007      -2.74565261       0.00000000
Si       2.69298185      -0.04546657      -2.74852815       0.00000000
Si      -2.74186764      -0.04429856      -2.74887460       0.00000000
Si      -0.02031363      -2.76112847      -2.74793918       0.00000000
Si      -2.61755865       2.88544884       0.09877296       0.00000000
