10
Lattice="16.28999089631971 0.0 0.0 0.0 16.28999089631971 0.0 0.0 0.0 34.64500226677339" Properties=species:S:1:pos:R:3:initial_magmoms:R:1 pbc="T T T"
Si       1.23549238      -1.42537500       1.43926506       0.00000000
Si       0.82132551       1.72856448      -1.40555342       0.00000000
Si      -0.68764977      -1.83984147      -1.38466247       0.00000000
Si      -1.48172211       1.25713188       1.41574802       0.00000000
Si      -2.55839337      -2.63906471       0.00560903       0.00000000
Si       2.58846701      -2.76235394       0.13291909       0.00000000
Si       2.58950468      -0.08834067       2.78515833       0.00000000
Si      -0.12030165       2.62914084       2.78179776       0.00000000
Si       2.62950804       2.78332569      -0.12303487       0.00000000
Si      -2.71567332       2.72186352       0.02644801       0.00000000
