10
Lattice="16.28999089631971 0.0 0.0 0.0 16.28999089631971 0.0 0.0 0.0 34.64500226677339" Properties=species:S:1:pos:R:3:initial_magmoms:R:1 pbc="T T T"
Si      -1.35651228      -1.35651717       1.35808485       0.00000000
Si      -1.35772589       1.35798327      -1.35780769       0.00000000
Si       1.35811359      -1.35790182      -1.35777304       0.00000000
Si       1.36013355       1.35891180       1.35829272       0.00000000
Si       2.71192662      -0.00151497       2.71395241       0.00000000
Si      -0.00272043       2.70897813       2.71880272       0.00000000
Si      -2.71344558       0.00109143      -2.71436815       0.00000000
Si       0.00071676      -2.71386513      -2.71523428       0.00000000
Si      -2.71472805      -2.71484253      -0.00055432       0.00000000
Si       2.71551042       2.71458189      -0.00041574       0.00000000
