10
Lattice="16.28999089631971 0.0 0.0 0.0 16.28999089631971 0.0 0.0 0.0 34.64500226677339" Properties=species:S:1:pos:R:3:initial_magmoms:R:1 pbc="T T T"
Si       0.98416069       1.25372727      -1.76235761       0.00000000
Si      -2.10225708      -0.68957199      -0.88379450       0.00000000
Si       1.06669593      -2.10040002       0.40312947       0.00000000
Si      -1.33126767       0.02596626       2.93460656       0.00000000
Si       0.45701595      -1.75418865       2.95560144       0.00000000
Si       0.33671430       3.53672190      -1.34679057       0.00000000
Si       3.41505908       1.15219170      -1.29953476       0.00000000
Si       1.47740104      -3.18896298      -1.89906686       0.00000000
Si       0.72184248       0.28266408      -3.99713473       0.00000000
Si      -2.04947748      -1.65732831      -3.11254339       0.00000000
