10
Lattice="16.28999089631971 0.0 0.0 0.0 16.28999089631971 0.0 0.0 0.0 34.64500226677339" Properties=species:S:1:pos:R:3:initial_magmoms:R:1 pbc="T T T"
Si      -1.53443655      -1.65222954       0.47636905       0.00000000
Si       2.05074810      -0.99670365      -0.42970220       0.00000000
Si      -0.92603763       0.50305149      -2.12425950       0.00000000
Si       0.04193046       1.66979016       1.77431014       0.00000000
Si       2.84190453       1.18853469      -1.00851658       0.00000000
Si      -2.23526493       2.23521606      -0.88157722       0.00000000
Si      -0.60887133      -2.81056257       2.24004316       0.00000000
Si      -3.48923655      -0.54882639       1.15544612       0.00000000
Si       2.76899049      -2.11913352       1.51232448       0.00000000
Si      -0.97443522       0.86081247       3.71588644       0.00000000
