10
Lattice="16.28999089631971 0.0 0.0 0.0 16.28999089631971 0.0 0.0 0.0 34.64500226677339" Properties=species:S:1:pos:R:3:initial_magmoms:R:1 pbc="T T T"
Si      -1.93904757      -0.63281763       1.08283015       0.00000000
Si      -0.28447227       2.25021915      -0.81682567       0.00000000
Si       1.59628968      -0.28194732       1.82028408       0.00000000
Si       0.40363362      -1.89757323      -1.53117138       0.00000000
Si       2.89932093       0.87351867      -1.71423567       0.00000000
Si       3.39002135       0.64423692       0.59703766       0.00000000
Si       1.15004142      -2.62790280       2.13333650       0.00000000
Si      -3.44704545      -0.95871537      -0.73901296       0.00000000
Si      -1.17503028      -2.22193971       2.70487542       0.00000000
Si       1.96041258      -0.91746909      -3.01009806       0.00000000
