10
Lattice="16.28999089631971 0.0 0.0 0.0 16.28999089631971 0.0 0.0 0.0 34.64500226677339" Properties=species:S:1:pos:R:3:initial_magmoms:R:1 pbc="T T T"
Si       1.87626593       1.34649882      -0.33851651       0.00000000
Si      -0.99152343      -0.27872190       2.16372018       0.00000000
Si      -1.39152438       1.84700907      -0.73253434       0.00000000
Si       0.46569852      -2.06081532      -1.26897785       0.00000000
Si       1.27881387       2.64743518       1.64536137       0.00000000
Si      -1.66464252       0.80866818      -2.82360391       0.00000000
Si      -2.53698831      -1.98068481       1.39494715       0.00000000
Si       3.57887132      -0.07123617       0.54569374       0.00000000
Si       2.59884374      -1.20010059       2.38388929       0.00000000
Si       1.72459546       0.82526769       3.21214783       0.00000000
