10
Lattice="16.28999089631971 0.0 0.0 0.0 16.28999089631971 0.0 0.0 0.0 34.64500226677339" Properties=species:S:1:pos:R:3:initial_magmoms:R:1 pbc="T T T"
Si       1.73547718       0.91823472      -1.26478580       0.00000000
Si       0.10166589      -2.18082375       0.93739035       0.00000000
Si       0.47589606       1.27294947       2.01055454       0.00000000
Si      -0.98064171      -0.18575487      -2.31321345       0.00000000
Si      -2.29599405       1.73944620      -1.88538208       0.00000000
Si       2.60972546      -1.10713356      -2.09304434       0.00000000
Si      -3.45141117       1.06746741       0.11231916       0.00000000
Si      -3.31951104      -1.37652129       0.52684684       0.00000000
Si       1.83479354      -2.12387391       2.45896506       0.00000000
Si      -1.89755694      -2.45884518       2.11497464       0.00000000
