10
Lattice="16.28999089631971 0.0 0.0 0.0 16.28999089631971 0.0 0.0 0.0 34.64500226677339" Properties=species:S:1:pos:R:3:initial_magmoms:R:1 pbc="T T T"
Si      -1.55677896      -0.98010414       1.47892668       0.00000000
Si       1.40190600      -1.36303317      -1.37017596       0.00000000
Si       0.93890836       1.79098776       1.29586239       0.00000000
Si      -1.26307026       1.06999236      -1.76641107       0.00000000
Si      -0.42843582       3.23986923      -1.54004050       0.00000000
Si       2.90489633       2.25605097       0.13137392       0.00000000
Si      -1.96041258       0.91746909       3.01009806       0.00000000
Si      -3.06614520      -2.12449293      -0.04462279       0.00000000
Si      -0.44876574       3.68025309       0.74008695       0.00000000
Si       1.51086329      -0.39946338      -3.53379221       0.00000000
