10
Lattice="16.28999089631971 0.0 0.0 0.0 16.28999089631971 0.0 0.0 0.0 34.64500226677339" Properties=species:S:1:pos:R:3:initial_magmoms:R:1 pbc="T T T"
Si       1.35606105      -1.35661232       1.35884704       0.00000000
Si      -1.35966114       1.35805820       1.35777304       0.00000000
Si       1.35653346       1.34717648      -1.37359196       0.00000000
Si      -1.35687555      -1.36429530      -1.36145581       0.00000000
Si      -2.72136342       0.03921003      -2.65334788       0.00000000
Si       0.05548374      -2.62224758      -2.77896033       0.00000000
Si       2.71189404      -0.00012706       2.71547680       0.00000000
Si       2.71119357       2.71685597       0.00065826       0.00000000
Si      -0.00226431       2.71402151       2.71523428       0.00000000
Si       2.71021617      -2.72067176      -0.00006929       0.00000000
