10
Lattice="16.28999089631971 0.0 0.0 0.0 16.28999089631971 0.0 0.0 0.0 34.64500226677339" Properties=species:S:1:pos:R:3:initial_magmoms:R:1 pbc="T T T"
Si      -2.17450323       0.81906120      -0.18174778       0.00000000
Si       0.43096824      -0.16441497       2.29505946       0.00000000
Si       1.24289442       1.88879292      -0.68285338       0.00000000
Si       0.95939955      -1.99371681      -0.87378209       0.00000000
Si       3.23965746       0.81047637      -1.18021731       0.00000000
Si       2.47925655      -1.05156837      -2.37138244       0.00000000
Si       2.39168151       1.25102313       2.48966054       0.00000000
Si      -1.89076401       3.13227378       0.52345163       0.00000000
Si       1.04286951      -2.47031334       2.64265296       0.00000000
Si      -2.66520364       1.04834295      -2.49302111       0.00000000
