10
Lattice="16.28999089631971 0.0 0.0 0.0 16.28999089631971 0.0 0.0 0.0 34.64500226677339" Properties=species:S:1:pos:R:3:initial_magmoms:R:1 pbc="T T T"
Si      -1.35415512       1.22816826       1.47813678       0.00000000
Si      -1.66843809      -0.94596030      -1.41779697       0.00000000
Si       0.87809616       1.90459422      -1.33378279       0.00000000
Si       1.38017025      -1.50136785       1.42734371       0.00000000
Si      -2.63778594       2.60064963       0.00051968       0.00000000
Si      -2.66372288      -2.70255987      -0.07083868       0.00000000
Si      -3.36487543       0.91888632      -1.54861657       0.00000000
Si       0.01340667       2.56841172       2.83655768       0.00000000
Si      -0.84422925       3.61919817      -1.13696334       0.00000000
Si      -2.70261200      -0.14362893       2.83939857       0.00000000
