10
Lattice="16.28999089631971 0.0 0.0 0.0 16.28999089631971 0.0 0.0 0.0 34.64500226677339" Properties=species:S:1:pos:R:3:initial_magmoms:R:1 pbc="T T T"
Si       1.35480672      -1.35557235       1.35877775       0.00000000
Si       1.35606105       1.35641943      -1.35721872       0.00000000
Si      -1.35915615      -1.35826020      -1.35735730       0.00000000
Si      -1.36083402       1.35651717       1.36265799       0.00000000
Si      -0.00107514       2.71355562      -2.71440280       0.00000000
Si       2.71360449      -0.00087966      -2.71474925       0.00000000
Si       2.71394658      -2.71479366       0.00045039       0.00000000
Si      -2.71548924      -2.71404432       0.00031181       0.00000000
Si      -2.71567006      -0.00185706      -2.71440280       0.00000000
Si       2.71305063       2.71713942       0.00020787       0.00000000
