10
Lattice="16.28999089631971 0.0 0.0 0.0 16.28999089631971 0.0 0.0 0.0 34.64500226677339" Properties=species:S:1:pos:R:3:initial_magmoms:R:1 pbc="T T T"
Si       1.31491251      -0.37147716       1.79097439       0.00000000
Si      -2.17506428      -0.00322542       0.61425623       0.00000000
Si       1.03861782       0.14100624      -2.01516233       0.00000000
Si       2.01337884       1.83415626      -0.62704025       0.00000000
Si       3.10464594      -0.36035109       0.18102024       0.00000000
Si       0.51992793       1.95390405       2.57086847       0.00000000
Si      -1.82642570       1.68534711       2.28965483       0.00000000
Si      -1.61786741      -2.54150064      -2.03265806       0.00000000
Si      -0.39084271       1.35778779      -3.41045593       0.00000000
Si      -3.21913925       1.71745470      -0.59669121       0.00000000
