10
Lattice="16.28999089631971 0.0 0.0 0.0 16.28999089631971 0.0 0.0 0.0 34.64500226677339" Properties=species:S:1:pos:R:3:initial_magmoms:R:1 pbc="T T T"
Si      -1.31491251       0.37147716      -1.79097439       0.00000000
Si      -0.08348625      -1.56033765       1.73055348       0.00000000
Si       1.78973343       0.01112607      -1.60995416       0.00000000
Si      -0.79498458       2.32538121       0.77989408       0.00000000
Si       2.53822635       0.75556278       1.24289015       0.00000000
Si       2.26111716      -1.54961883       1.59103797       0.00000000
Si       0.69846633       2.20563342      -2.41801464       0.00000000
Si      -0.90121167      -0.10959912       3.44264115       0.00000000
Si      -0.16651638       2.08753092       3.00406983       0.00000000
Si      -3.48997679       0.36825174      -1.17671816       0.00000000
