10
Lattice="16.28999089631971 0.0 0.0 0.0 16.28999089631971 0.0 0.0 0.0 34.64500226677339" Properties=species:S:1:pos:R:3:initial_magmoms:R:1 pbc="T T T"
Si       0.97112835       1.66591314       1.28907196       0.00000000
Si      -1.96598797      -0.46506321       1.16448847       0.00000000
Si      -0.96291819       0.83548152      -2.00501134       0.00000000
Si       1.61857440      -1.72574631      -0.27657121       0.00000000
Si       1.94211009       0.37538676       2.97465620       0.00000000
Si      -2.90489633      -2.25605097      -0.13137392       0.00000000
Si      -3.35366207       1.42420212       0.60871303       0.00000000
Si      -0.14519277      -0.61525701      -3.71709902       0.00000000
Si      -1.47528756      -0.69434496       3.47576179       0.00000000
Si       3.21698178      -1.04471028      -1.81671564       0.00000000
