10
Lattice="16.28999089631971 0.0 0.0 0.0 16.28999089631971 0.0 0.0 0.0 34.64500226677339" Properties=species:S:1:pos:R:3:initial_magmoms:R:1 pbc="T T T"
Si       1.96598797       0.46506321      -1.16448847       0.00000000
Si       0.49070041      -0.22928175       2.31127333       0.00000000
Si      -0.93890836      -1.79098776      -1.29586239       0.00000000
Si      -1.38767409       1.88926533      -0.55577544       0.00000000
Si      -1.36734417       1.44888147      -2.83590289       0.00000000
Si      -2.89932093      -0.87351867       1.71423567       0.00000000
Si       1.00306978       1.30054473      -3.16949980       0.00000000
Si      -3.18379320       1.37670048       0.89741000       0.00000000
Si       2.93711632       2.13097635       0.12458350       0.00000000
Si      -2.49568731      -2.77109190       0.18306429       0.00000000
