10
Lattice="16.290000149 0.0 0.0 0.0 16.290000149 0.0 0.0 0.0 29.1751946751" Properties=species:S:1:pos:R:3:initial_magmoms:R:1 pbc="T T T"
Si      -1.37944536       1.44704886      -1.15933471       0.00000000
Si       1.52562367      -1.26493480      -1.21581789       0.00000000
Si       0.84421297       1.66342404       1.39684997       0.00000000
Si      -0.92084113      -1.73183879       1.27796105       0.00000000
H        0.22866273       2.97297390       0.96505709       0.00000000
Si       2.55880064      -2.09155457       0.73699459       0.00000000
Si       0.11331324      -2.65917962      -2.51598126       0.00000000
Si      -2.61258819       0.08776954      -2.60388612       0.00000000
Si       0.09009999       1.07529965       3.55012521       0.00000000
Si       0.72995491      -3.38716344       1.37339311       0.00000000
