10
Lattice="16.290000149 0.0 0.0 0.0 16.290000149 0.0 0.0 0.0 29.1751946751" Properties=species:S:1:pos:R:3:initial_magmoms:R:1 pbc="T T T"
Si       1.04324419       1.08813943      -0.27888569       0.00000000
H       -0.48048984       1.54610020       1.78240017       0.00000000
Si      -0.94833865       0.24922071       2.41453911       0.00000000
Si      -2.36778410      -0.61037002      -1.17281365       0.00000000
Si       1.06644115      -1.11579985       2.34008401       0.00000000
Si      -0.16259049      -2.70878267       0.92777119       0.00000000
Si       2.21674648       0.93789676       1.73420275       0.00000000
Si       2.52805164       0.00908982      -1.70756579       0.00000000
Si      -0.20468385       2.73321768      -1.43457350       0.00000000
H       -1.65851750      -1.91739818      -1.81869411       0.00000000
