10
Lattice="16.290000149 0.0 0.0 0.0 16.290000149 0.0 0.0 0.0 29.1751946751" Properties=species:S:1:pos:R:3:initial_magmoms:R:1 pbc="T T T"
Si       1.25667577       1.36979353      -1.42489317       0.00000000
Si       1.37567422      -1.26389224       1.41695751       0.00000000
Si      -0.80800030      -1.85922659      -1.18297187       0.00000000
Si      -1.42581484       1.37630953       1.29359896       0.00000000
Si      -2.68196933      -2.66146022       0.01301214       0.00000000
Si      -0.05129721      -2.65474874       2.69785359       0.00000000
Si       2.66255165      -2.71393031       0.08984501       0.00000000
Si       2.64839564       2.74853028      -0.08569338       0.00000000
Si      -0.08158032       2.74590759       2.65589966       0.00000000
Si      -0.19681578       2.78640453      -2.64062353       0.00000000
