10
Lattice="16.290000149 0.0 0.0 0.0 16.290000149 0.0 0.0 0.0 29.1751946751" Properties=species:S:1:pos:R:3:initial_magmoms:R:1 pbc="T T T"
Si      -1.37128570       1.34254036      -1.35530449       0.00000000
Si      -1.32988792      -1.39888747       1.34188390       0.00000000
Si       1.29865510      -1.35757603      -1.41738931       0.00000000
Si       1.35500221       1.38214135       1.35107409       0.00000000
Si       2.77364946       0.00918756       2.60315674       0.00000000
Si      -2.73323397      -0.08487090       2.65888137       0.00000000
Si       2.60954399      -2.78472666      -0.12133963       0.00000000
Si      -0.01081656       2.69260670      -2.70888765       0.00000000
Si      -2.70985192       2.70493823       0.01829285       0.00000000
Si       0.04282641      -2.63912663       2.78229244       0.00000000
