10
Lattice="16.290000149 0.0 0.0 0.0 16.290000149 0.0 0.0 0.0 29.1751946751" Properties=species:S:1:pos:R:3:initial_magmoms:R:1 pbc="T T T"
Si      -1.34153038       1.35485560       1.34348329       0.00000000
Si       1.39903408      -1.42687369       1.22203220       0.00000000
Si       1.39357693       1.23631327      -1.42488733       0.00000000
Si      -1.51071832      -1.28461312      -1.27871961       0.00000000
H        0.50961636       2.08603226      -2.31490582       0.00000000
Si       2.70695819       0.02026476       2.59277329       0.00000000
Si      -2.55608021       2.76907197      -0.10771482       0.00000000
Si      -2.66279600      -0.04829985       2.68617184       0.00000000
Si       2.42116643      -0.25291854      -2.89543385       0.00000000
Si       0.07208325      -2.80813539       2.59948067       0.00000000
