10
Lattice="16.290000149 0.0 0.0 0.0 16.290000149 0.0 0.0 0.0 29.1751946751" Properties=species:S:1:pos:R:3:initial_magmoms:R:1 pbc="T T T"
Si      -1.43316163       1.31976694      -1.28295001       0.00000000
Si      -1.37979559      -1.31777956       1.36367777       0.00000000
Si       1.33545421       1.40419801       1.33838288       0.00000000
Si       1.34628706      -1.27925371      -1.46048107       0.00000000
Si      -0.07739379       2.65984751      -2.59866376       0.00000000
Si       2.68587893      -2.61579935      -0.03883218       0.00000000
Si      -0.02397888      -2.68814324       2.70255663       0.00000000
Si      -2.75327067      -2.64446975       0.00029175       0.00000000
Si       2.69822675       0.06445953       2.70235241       0.00000000
Si      -2.74939365       0.06136443       2.68557667       0.00000000
