10
Lattice="16.290000149 0.0 0.0 0.0 16.290000149 0.0 0.0 0.0 29.1751946751" Properties=species:S:1:pos:R:3:initial_magmoms:R:1 pbc="T T T"
Si       1.35591119      -1.40817277       1.31370067       0.00000000
Si      -1.46192684       1.27980757       1.34357607       0.00000000
Si       1.19006270       1.69267763      -1.19320711       0.00000000
Si      -1.10906556      -1.70790878      -1.24828988       0.00000000
Si       2.36435994      -2.64797210      -0.52821690       0.00000000
Si      -2.77723651      -2.49168584       0.20279678       0.00000000
Si       2.52758575       0.05976801       2.76382162       0.00000000
Si      -2.86495816       2.45131922      -0.11608810       0.00000000
Si      -0.13179262      -2.60804531       2.74844338       0.00000000
Si       0.30792661      -3.65598102      -1.24901926       0.00000000
