10
Lattice="16.290000149 0.0 0.0 0.0 16.290000149 0.0 0.0 0.0 29.1751946751" Properties=species:S:1:pos:R:3:initial_magmoms:R:1 pbc="T T T"
Si      -1.37907883       1.34757397       1.32079024       0.00000000
Si      -1.37041255      -1.36159966      -1.32732548       0.00000000
Si       1.35179308       1.39100311      -1.32752971       0.00000000
Si       1.35575155      -1.32985045       1.38786401       0.00000000
Si       0.04062726       2.65843028       2.63446173       0.00000000
Si       0.01477503      -2.67603977      -2.68569337       0.00000000
Si       2.70291827      -2.67755474       0.02135624       0.00000000
Si      -2.72622926       0.00876402      -2.66620434       0.00000000
Si      -2.72961758      -0.01031157       2.67218526       0.00000000
Si       2.69575067       0.06019155      -2.71411001       0.00000000
