10
Lattice="16.290000149 0.0 0.0 0.0 16.290000149 0.0 0.0 0.0 29.1751946751" Properties=species:S:1:pos:R:3:initial_magmoms:R:1 pbc="T T T"
Si       1.37098270      -1.34583094      -1.33826618       0.00000000
Si       1.37837836       1.33542163       1.34430545       0.00000000
Si      -1.35013150      -1.36477621       1.35603387       0.00000000
Si      -1.34609158       1.35923761      -1.36855003       0.00000000
Si      -0.00089595       2.70143588       2.65514694       0.00000000
Si      -0.01475874      -2.69617421      -2.66279084       0.00000000
Si      -2.72145629      -0.00817758       2.68820244       0.00000000
Si       2.74152558       0.01267362      -2.67597803       0.00000000
Si      -2.69309540       0.00213399      -2.73053564       0.00000000
Si       2.73486297       2.69114060      -0.01280791       0.00000000
