10
Lattice="16.290000149 0.0 0.0 0.0 16.290000149 0.0 0.0 0.0 29.1751946751" Properties=species:S:1:pos:R:3:initial_magmoms:R:1 pbc="T T T"
Si      -1.39478239       1.28303299      -1.36000170       0.00000000
Si       1.43959618      -1.37031481      -1.23268115       0.00000000
Si      -1.37518552      -1.31931082       1.35813449       0.00000000
Si       0.87074938       1.89563474       1.06416523       0.00000000
Si      -2.43962300       0.14395473       2.83477862       0.00000000
Si       0.05504391      -2.72152145      -2.57223104       0.00000000
Si      -2.57961926       2.73432540       0.05128999       0.00000000
Si      -0.01050705       2.61884558      -2.70007674       0.00000000
Si       2.77899258      -0.03719007      -2.60753302       0.00000000
Si      -2.74372473      -0.05958882      -2.67320639       0.00000000
