10
Lattice="16.290000149 0.0 0.0 0.0 16.290000149 0.0 0.0 0.0 29.1751946751" Properties=species:S:1:pos:R:3:initial_magmoms:R:1 pbc="T T T"
Si       1.04477545      -1.11590248      -0.01543368       0.00000000
Si      -1.86862592       1.85572912      -0.72220277       0.00000000
Si      -0.33730074       2.56980128       0.89491992       0.00000000
H        1.22896648       2.17846661      -1.72378720       0.00000000
Si      -0.26422380       1.10679637       2.82541338       0.00000000
Si      -1.83861974      -0.57833736       2.37900372       0.00000000
Si       2.91363920      -0.21456048       1.10585658       0.00000000
Si      -1.24756966       0.77272104      -2.76502072       0.00000000
Si       1.32180319      -1.85324327      -2.22294561       0.00000000
Si       0.20887038      -3.04562241       1.00146773       0.00000000
