10
Lattice="16.290000149 0.0 0.0 0.0 16.290000149 0.0 0.0 0.0 29.1751946751" Properties=species:S:1:pos:R:3:initial_magmoms:R:1 pbc="T T T"
Si       1.39012345       1.34478838       1.27549867       0.00000000
Si       1.25799526      -1.40222692      -1.36330725       0.00000000
Si      -1.31541751       1.26371305      -1.47265296       0.00000000
Si      -1.41108868      -1.40462155       1.25741005       0.00000000
Si      -2.17360730      -0.67430827      -2.51040880       0.00000000
Si      -0.46745784      -2.34172010      -2.63932669       0.00000000
Si      -0.03510495       2.70515000       2.54531984       0.00000000
Si       2.72002929      -0.06426405       2.58619429       0.00000000
Si       2.58188357      -0.07680735      -2.72624981       0.00000000
Si       2.68501556       2.65922849      -0.19394211       0.00000000
