10
Lattice="16.290000149 0.0 0.0 0.0 16.290000149 0.0 0.0 0.0 29.1751946751" Properties=species:S:1:pos:R:3:initial_magmoms:R:1 pbc="T T T"
Si      -1.82884574      -1.29560887       0.63639852       0.00000000
Si       1.81995140      -1.46018674      -0.16530665       0.00000000
Si      -1.03317697       0.82661977      -1.95281248       0.00000000
Si       0.64850491       1.77225428       1.58707224       0.00000000
H       -0.00646713      -1.13907826       3.12495510       0.00000000
Si      -2.55880064       2.09155457      -0.73699459       0.00000000
Si       3.44430876       0.22551876      -0.09449846       0.00000000
Si      -3.47964177       0.35971578       0.54096646       0.00000000
Si      -1.36381510      -1.71501122       2.84965796       0.00000000
Si       2.88031638       1.26599365       1.91310504       0.00000000
