10
Lattice="16.290000149 0.0 0.0 0.0 16.290000149 0.0 0.0 0.0 29.1751946751" Properties=species:S:1:pos:R:3:initial_magmoms:R:1 pbc="T T T"
Si      -1.39012345      -1.34478838      -1.27549867       0.00000000
Si       1.32990584      -1.40905243       1.31069562       0.00000000
Si      -1.42522840       1.36036162       1.26982117       0.00000000
Si       1.29489211       1.31444011      -1.46944077       0.00000000
Si       2.62589590       2.67463883      -0.09090991       0.00000000
Si       2.66445107      -0.03184695       2.65587632       0.00000000
Si      -0.06892299       2.70980894       2.62442546       0.00000000
Si      -0.13212819      -2.74701531      -2.63880592       0.00000000
Si      -2.74989864      -0.02642238       2.65284210       0.00000000
Si       2.68038595      -2.73575891      -0.09592804       0.00000000
