10
Lattice="16.290000149 0.0 0.0 0.0 16.290000149 0.0 0.0 0.0 29.1751946751" Properties=species:S:1:pos:R:3:initial_magmoms:R:1 pbc="T T T"
Si       1.31088889      -1.42715062       1.29604967       0.00000000
Si      -1.35149986      -1.38632788      -1.32213230       0.00000000
Si       1.37598373       1.33024141      -1.35492522       0.00000000
Si      -1.29865510       1.35757603       1.41738931       0.00000000
Si       2.65983122      -0.08452881       2.60925436       0.00000000
Si       0.00884547       2.68758938      -2.68251327       0.00000000
Si      -2.66994080       2.70011639       0.06208481       0.00000000
Si      -2.69000030      -0.02707398      -2.68516822       0.00000000
Si      -2.62854302      -0.04131144       2.75927321       0.00000000
Si       0.03678282      -2.73722502      -2.65578880       0.00000000
