10
Lattice="16.290000149 0.0 0.0 0.0 16.290000149 0.0 0.0 0.0 29.1751946751" Properties=species:S:1:pos:R:3:initial_magmoms:R:1 pbc="T T T"
H       -1.16104695       0.98378569       0.24895194       0.00000000
H        1.50996573      -1.46121301      -0.61930186       0.00000000
Si       1.47997584       1.20293506      -1.38920607       0.00000000
Si       1.28759093       0.16285113       2.03292756       0.00000000
Si      -1.31696246      -1.70662187      -1.13634466       0.00000000
H       -2.27682400      -0.83246788       2.22848889       0.00000000
Si       2.12551596      -2.77076287      -0.18750898       0.00000000
Si      -2.79201154       2.31979376      -0.00096278       0.00000000
Si       0.05803964       2.41351013      -2.78328440       0.00000000
Si      -2.58970603      -0.39355011      -2.67784524       0.00000000
