10
Lattice="16.290000149 0.0 0.0 0.0 16.290000149 0.0 0.0 0.0 29.1751946751" Properties=species:S:1:pos:R:3:initial_magmoms:R:1 pbc="T T T"
Si       1.91769140      -1.06170402       0.77839419       0.00000000
Si      -1.25551918      -1.31742933      -1.47118837       0.00000000
Si       1.16398567       1.44108672      -1.50237665       0.00000000
Si      -0.97495651       0.40499384       2.15228329       0.00000000
H       -1.87848137       1.96743291       0.65439962       0.00000000
Si       0.05113431       2.55359599       2.54573996       0.00000000
Si      -2.60180624      -2.60771137      -0.09980834       0.00000000
Si       3.66349071      -0.74149311      -0.71581340       0.00000000
Si       2.68239287       0.12274026      -2.70165220       0.00000000
Si       2.60455925       2.77486306      -0.29501957       0.00000000
