10
Lattice="16.290000149 0.0 0.0 0.0 16.290000149 0.0 0.0 0.0 29.1751946751" Properties=species:S:1:pos:R:3:initial_magmoms:R:1 pbc="T T T"
Si       1.35790509      -1.24134688       1.45720090       0.00000000
Si      -1.16994048       1.59176564       1.28720959       0.00000000
Si       1.31708235       1.42762303      -1.34500565       0.00000000
Si      -1.45853820      -1.38427534      -1.34961533       0.00000000
Si      -0.52359644       2.60121003      -2.27741570       0.00000000
Si       2.80302358      -2.43432875       0.09910814       0.00000000
Si      -1.45518246       3.41775606      -0.28282434       0.00000000
Si       0.00910774      -2.59167386      -2.68691873       0.00000000
Si      -2.64831094       0.28507500       2.66062604       0.00000000
Si       0.01278765      -2.70285311       2.69189018       0.00000000
