10
Lattice="16.290000149 0.0 0.0 0.0 16.290000149 0.0 0.0 0.0 29.1751946751" Properties=species:S:1:pos:R:3:initial_magmoms:R:1 pbc="T T T"
Si       1.36000324      -1.35011521      -1.32747136       0.00000000
Si      -1.17573239      -1.52774137       1.31886468       0.00000000
Si       1.54064305       1.31176855       1.19005619       0.00000000
Si      -1.03091103       1.54445491      -1.48139968       0.00000000
H        2.71735121      -0.77418226      -1.05217422       0.00000000
Si       0.13224222       2.49155552       2.66077775       0.00000000
Si      -1.39938920      -3.37269792      -0.12486983       0.00000000
Si       2.32419206       2.80904925      -0.51905589       0.00000000
Si       0.90697834      -3.55892520      -0.71995628       0.00000000
Si      -2.64337832      -0.32034285       2.65616807       0.00000000
