10
Lattice="16.290000149 0.0 0.0 0.0 16.290000149 0.0 0.0 0.0 29.1751946751" Properties=species:S:1:pos:R:3:initial_magmoms:R:1 pbc="T T T"
H       -0.61555024       1.30954985      -0.43179288       0.00000000
Si      -0.84421297      -1.66342404      -1.39684997       0.00000000
Si       2.30826044       0.08434636      -0.36057623       0.00000000
Si      -0.75411298      -0.58812439       2.15327524       0.00000000
H        1.40473558       1.64678544      -1.85845990       0.00000000
Si       2.36309258      -1.98272434       0.92721686       0.00000000
Si      -2.22365833      -0.21637518      -2.55618468       0.00000000
Si      -2.12551596       2.77076287       0.18750898       0.00000000
Si       1.31496139      -1.31082536       2.99821806       0.00000000
Si       0.49813191       2.54690569      -2.66532908       0.00000000
