10
Lattice="16.290000149 0.0 0.0 0.0 16.290000149 0.0 0.0 0.0 29.1751946751" Properties=species:S:1:pos:R:3:initial_magmoms:R:1 pbc="T T T"
Si       0.17871759      -1.38713587      -0.61136620       0.00000000
Si      -0.69644638       1.82669546       1.92418286       0.00000000
Si      -0.51297210       1.28148544      -2.39834688       0.00000000
Si      -2.53399097       0.94605805       0.73501651       0.00000000
Si      -2.45144954       0.25405884      -1.49522873       0.00000000
Si       1.21138957       2.61680933       0.80326313       0.00000000
Si       2.05174181      -0.77893568       2.05588261       0.00000000
Si       1.01224432      -2.63181242       1.10214258       0.00000000
Si       2.91753903       0.94939750       0.67434524       0.00000000
Si       2.07319574      -1.37018286      -1.95147042       0.00000000
