10
Lattice="16.290000149 0.0 0.0 0.0 16.290000149 0.0 0.0 0.0 29.1751946751" Properties=species:S:1:pos:R:3:initial_magmoms:R:1 pbc="T T T"
Si       1.30225519       1.23645988      -1.50024686       0.00000000
Si       1.44225145      -1.35391078       1.28324176       0.00000000
Si      -1.50534262       1.33204960       1.25202430       0.00000000
Si      -1.42856785      -1.41185431      -1.32111117       0.00000000
Si       2.50668893      -2.81717634      -0.19340237       0.00000000
Si      -2.82029750      -0.15855057       2.52018249       0.00000000
Si      -0.11639205       2.60941367      -2.75232952       0.00000000
Si       0.13160691      -2.71054199       2.66955949       0.00000000
Si       2.48709206      -0.21483252      -2.91153855       0.00000000
Si       3.15390693       2.17204346      -0.39433193       0.00000000
