10
Lattice="16.290000149 0.0 0.0 0.0 16.290000149 0.0 0.0 0.0 29.1751946751" Properties=species:S:1:pos:R:3:initial_magmoms:R:1 pbc="T T T"
Si       0.92624941      -1.04405869       1.83462377       0.00000000
Si      -0.76841560      -2.04454163      -0.88287057       0.00000000
Si      -1.29771028       1.49812615       1.32411621       0.00000000
Si       1.98868322       0.60080779      -1.17147159       0.00000000
H       -0.27056061       2.67963986      -1.43401917       0.00000000
Si      -0.14546970      -1.52401096      -3.06310369       0.00000000
Si       2.26235522      -2.58709637       0.67572668       0.00000000
Si      -1.01222803      -2.07148529       2.73774192       0.00000000
Si       1.99332587       0.71327395       2.90614114       0.00000000
Si       0.29207970       2.31058991       2.89082416       0.00000000
