10
Lattice="16.290000149 0.0 0.0 0.0 16.290000149 0.0 0.0 0.0 29.1751946751" Properties=species:S:1:pos:R:3:initial_magmoms:R:1 pbc="T T T"
H       -0.88396057       0.84971899      -0.89001849       0.00000000
Si       1.02758950      -1.48923181      -1.47054651       0.00000000
Si      -1.39357693      -1.23631327       1.42488733       0.00000000
Si       1.90003304       1.29731932       0.62828782       0.00000000
Si       1.94595455       0.33956505      -2.64627768       0.00000000
Si       0.01503567       1.83355355      -2.96069876       0.00000000
H       -2.78674662       0.42492465      -2.13241498       0.00000000
Si       2.14770620       0.78216436       2.92679368       0.00000000
Si       0.00545715      -2.66318696       2.64691954       0.00000000
Si       2.53483805      -2.79972975      -0.17811456       0.00000000
