10
Lattice="16.290000149 0.0 0.0 0.0 16.290000149 0.0 0.0 0.0 29.1751946751" Properties=species:S:1:pos:R:3:initial_magmoms:R:1 pbc="T T T"
Si      -1.34317567      -1.34626426      -1.38891432       0.00000000
Si       1.30864087       1.34709179      -1.42214486       0.00000000
Si       1.42561936      -1.36457422       1.29599132       0.00000000
Si      -1.41867982       1.35495986       1.33555289       0.00000000
Si       0.07933230      -2.65485626       2.66737135       0.00000000
Si      -2.68013182      -2.69672156      -0.01893470       0.00000000
Si       2.60270219       2.78284353      -0.10823997       0.00000000
Si      -0.10394649       2.82040827       2.61471012       0.00000000
Si       2.68113854      -0.04714489       2.76717969       0.00000000
Si      -2.76228718       2.68871991      -0.04586341       0.00000000
