10
Lattice="16.290000149 0.0 0.0 0.0 16.290000149 0.0 0.0 0.0 29.1751946751" Properties=species:S:1:pos:R:3:initial_magmoms:R:1 pbc="T T T"
Si      -2.05669397       0.61625396      -0.88987261       0.00000000
Si       1.03316068      -1.62217939      -1.31778519       0.00000000
Si      -0.52396785      -1.25211946       1.93230232       0.00000000
Si       1.51435099       1.85159798       0.07322974       0.00000000
Si       2.32248161      -0.18136928      -2.59624222       0.00000000
Si      -3.30186900      -1.16993641      -0.04828495       0.00000000
Si       2.55709019      -2.61971384       0.18882186       0.00000000
Si       0.77835250       3.16261719      -1.72291195       0.00000000
Si      -2.13745979       0.28131038       3.00866278       0.00000000
Si       0.89329474       2.93460606       2.11604769       0.00000000
