10
Lattice="16.290000149 0.0 0.0 0.0 16.290000149 0.0 0.0 0.0 29.1751946751" Properties=species:S:1:pos:R:3:initial_magmoms:R:1 pbc="T T T"
Si      -1.35544204      -1.34389243       1.37563960       0.00000000
Si       1.33467229       1.35148357       1.39401998       0.00000000
Si      -1.37639098       1.34734591      -1.35933067       0.00000000
Si       1.36319608      -1.37355652      -1.34917770       0.00000000
Si       2.71451675      -2.69249267       0.05870049       0.00000000
Si       2.69843852       2.71298549       0.06436048       0.00000000
Si      -2.71580366      -2.69830820       0.02246490       0.00000000
Si      -0.02357163       2.74517454      -2.67988751       0.00000000
Si       2.72984564      -0.02316438      -2.70011759       0.00000000
Si      -2.72818406       2.71652042      -0.00081691       0.00000000
