10
Lattice="16.290000149 0.0 0.0 0.0 16.290000149 0.0 0.0 0.0 29.1751946751" Properties=species:S:1:pos:R:3:initial_magmoms:R:1 pbc="T T T"
Si      -0.72210313      -0.07907166      -1.32391198       0.00000000
H       -2.11323656       0.77243923       0.30534759       0.00000000
H        1.14401413       1.67611070      -1.05862194       0.00000000
H        1.74897587       1.20088252      -1.15131153       0.00000000
Si      -1.50623857       0.84862756       1.70333539       0.00000000
Si       0.27056061      -2.67963986       1.43401917       0.00000000
Si       2.25924383      -2.07883208       0.26254758       0.00000000
Si       0.88327639      -0.85981879      -2.85490950       0.00000000
Si       0.38309193       2.35157555       2.02808448       0.00000000
Si      -1.02714967      -1.18151371       2.75813538       0.00000000
