10
Lattice="16.290000149 0.0 0.0 0.0 16.290000149 0.0 0.0 0.0 29.1751946751" Properties=species:S:1:pos:R:3:initial_magmoms:R:1 pbc="T T T"
Si      -0.96671377       1.45591876       1.50934952       0.00000000
Si       1.56576223      -1.28115964       1.12181541       0.00000000
Si       1.60586821       1.03962781      -1.38871009       0.00000000
Si      -1.88933051      -1.50294799      -0.32474909       0.00000000
H       -0.38309193      -2.35157555      -2.02808448       0.00000000
H        0.76092220      -0.67546486      -3.08670642       0.00000000
H       -2.49632849      -1.57913632      -1.72273690       0.00000000
Si       0.17954838      -2.72062550       2.29675885       0.00000000
Si      -2.65126268       2.38239623       0.18972629       0.00000000
H       -2.11154240       2.63865422      -1.19501597       0.00000000
