10
Lattice="16.290000149 0.0 0.0 0.0 16.290000149 0.0 0.0 0.0 29.1751946751" Properties=species:S:1:pos:R:3:initial_magmoms:R:1 pbc="T T T"
Si       1.34773761       1.35399223      -1.35728841       0.00000000
Si      -1.34426710       1.36575361       1.34926523       0.00000000
Si       1.34232859      -1.35754345       1.36989209       0.00000000
Si      -1.37101528      -1.34739478      -1.35547954       0.00000000
Si      -2.68218110      -0.07996761       2.60651189       0.00000000
Si       2.67011021      -2.70580160      -0.02622850       0.00000000
Si       2.66204178       2.72039744       0.03673157       0.00000000
Si      -0.02076975       2.71088408      -2.69788860       0.00000000
Si       2.69016972       0.02138877       2.72102453       0.00000000
Si      -0.02705769      -2.67820634      -2.74205985       0.00000000
