10
Lattice="16.290000149 0.0 0.0 0.0 16.290000149 0.0 0.0 0.0 29.1751946751" Properties=species:S:1:pos:R:3:initial_magmoms:R:1 pbc="T T T"
Si      -1.66817095      -0.78377707       1.45108666       0.00000000
Si      -0.51066870       0.69072859      -2.22746776       0.00000000
Si       1.10906556       1.70790878       1.24828988       0.00000000
Si       1.41699218      -1.94807225      -0.00072938       0.00000000
H       -2.85220961      -1.33749046       0.41740951       0.00000000
Si       2.46497676       0.29973600       2.56199055       0.00000000
Si       0.90205713      -2.85998646      -2.09060692       0.00000000
Si       3.47342551      -0.94006333       0.72007298       0.00000000
Si      -0.52798497      -2.28701828       2.83192820       0.00000000
Si       1.68237257      -0.74178145      -3.26517109       0.00000000
