10
Lattice="16.290000149 0.0 0.0 0.0 16.290000149 0.0 0.0 0.0 29.1751946751" Properties=species:S:1:pos:R:3:initial_magmoms:R:1 pbc="T T T"
Si       0.08254143      -0.69199921      -2.23024524       0.00000000
Si      -0.98888446      -1.78712053       1.15252814       0.00000000
Si       1.83754460       0.88063741       1.18916635       0.00000000
Si      -1.63300735       1.73534114      -0.08365053       0.00000000
H        2.53399097      -0.94605805      -0.73501651       0.00000000
Si      -2.30405762      -0.46398807       2.55364060       0.00000000
Si       0.55066717       2.33067548       2.51627885       0.00000000
Si      -2.12102318      -0.31122045      -3.03515969       0.00000000
Si      -2.07179480       1.98252560      -2.36719361       0.00000000
Si       2.02101887       0.33542739      -3.13336339       0.00000000
