10
Lattice="16.290000149 0.0 0.0 0.0 16.290000149 0.0 0.0 0.0 29.1751946751" Properties=species:S:1:pos:R:3:initial_magmoms:R:1 pbc="T T T"
Si       1.35982405      -1.35743594      -1.33934566       0.00000000
Si       1.37324701       1.34759026       1.34264246       0.00000000
Si      -1.34423452      -1.35519118       1.36554499       0.00000000
Si      -1.33011109       1.37003788      -1.37202188       0.00000000
Si       0.00192222       2.70418889       2.67481102       0.00000000
Si       2.70861977       0.01619226      -2.67618226       0.00000000
Si       0.04525362      -2.70345584       2.69888056       0.00000000
Si       0.00428427      -2.72894970      -2.67772854       0.00000000
Si      -2.68928354       2.72556137      -0.01823450       0.00000000
Si      -2.70093089      -2.71780733       0.01534615       0.00000000
