10
Lattice="16.290000149 0.0 0.0 0.0 16.290000149 0.0 0.0 0.0 29.1751946751" Properties=species:S:1:pos:R:3:initial_magmoms:R:1 pbc="T T T"
Si       1.29759625       1.48514302      -1.27414669       0.00000000
Si       1.37367055      -1.35207001       1.36033138       0.00000000
Si      -1.38482920       1.37099899       1.34993042       0.00000000
Si      -1.17167455      -1.46794078      -1.45012096       0.00000000
Si       2.60266961       0.05802498      -2.57389111       0.00000000
Si      -2.52758575      -0.05976801      -2.76382162       0.00000000
Si      -2.65937836      -2.66781332      -0.01537825       0.00000000
Si       0.01806561      -2.66673818       2.75918860       0.00000000
Si       2.71790507       0.01752804       2.72263208       0.00000000
Si      -0.02168199       2.73843048       2.71247912       0.00000000
