10
Lattice="16.290000149 0.0 0.0 0.0 16.290000149 0.0 0.0 0.0 29.1751946751" Properties=species:S:1:pos:R:3:initial_magmoms:R:1 pbc="T T T"
H        1.08616834      -1.70882102      -0.78238769       0.00000000
Si      -0.24767316       0.51515496      -2.29850586       0.00000000
Si       1.94214269       0.85169008       1.06235403       0.00000000
Si      -1.74635318       1.54241866       0.45107243       0.00000000
Si      -0.83432494      -1.99821287       1.09086695       0.00000000
Si       0.71068384       2.05257341       2.65877984       0.00000000
Si      -2.17197830      -0.84385459       2.64809005       0.00000000
Si       1.98037532      -2.45521253      -1.76337444       0.00000000
Si      -2.14770620      -0.78216436      -2.92679368       0.00000000
Si      -0.70685569       3.39529541       1.40481246       0.00000000
