10
Lattice="16.290000149 0.0 0.0 0.0 16.290000149 0.0 0.0 0.0 29.1751946751" Properties=species:S:1:pos:R:3:initial_magmoms:R:1 pbc="T T T"
Si      -1.36352188      -1.34998489       1.34984873       0.00000000
Si      -1.38948814       1.34826467      -1.33333557       0.00000000
Si       1.32027193      -1.36840888      -1.38366278       0.00000000
Si       1.36127386       1.34292481       1.37771104       0.00000000
Si      -0.06320520       2.70495452       2.67729091       0.00000000
Si       0.00995319      -2.70208748       2.69502943       0.00000000
Si       2.68982111      -2.71034651      -0.03051725       0.00000000
Si       2.69625566       2.70632288       0.00773143       0.00000000
Si      -0.04525362       2.70345584      -2.69888056       0.00000000
Si       2.69711903      -0.01322748      -2.71615227       0.00000000
