10
Lattice="16.290000149 0.0 0.0 0.0 16.290000149 0.0 0.0 0.0 29.1751946751" Properties=species:S:1:pos:R:3:initial_magmoms:R:1 pbc="T T T"
Si       1.34636851       1.33000358      -1.34666864       0.00000000
Si      -1.35607735       1.39506584       1.28957278       0.00000000
Si       1.37049400      -1.36059946       1.31352561       0.00000000
Si      -1.30119634      -1.32741673      -1.42546792       0.00000000
Si      -2.68066125       0.01161477       2.65147087       0.00000000
Si      -0.01682757      -2.71985336       2.61777352       0.00000000
Si       0.03609864       2.73838812       2.61923228       0.00000000
Si       2.72603379       0.01091430       2.65190850       0.00000000
Si      -2.58014869       0.04535299      -2.81294390       0.00000000
Si      -2.65007677       2.74808067      -0.14208320       0.00000000
