10
Lattice="16.290000149 0.0 0.0 0.0 16.290000149 0.0 0.0 0.0 29.1751946751" Properties=species:S:1:pos:R:3:initial_magmoms:R:1 pbc="T T T"
Si       1.34511744       1.46150623      -1.23468928       0.00000000
Si       1.38484875      -1.33952671       1.37284754       0.00000000
Si      -1.36026062       1.45816678       1.28714249       0.00000000
Si      -1.21983463      -1.49048614      -1.39732844       0.00000000
Si      -2.68023934      -2.66848121       0.01901347       0.00000000
Si      -2.66313484       0.10441890       2.72159637       0.00000000
Si      -0.01278765       2.70285311      -2.69189018       0.00000000
Si       2.79023593       0.26852436      -2.59278205       0.00000000
Si       0.03917745      -2.66898620       2.75357238       0.00000000
Si       0.03050465       2.74494648       2.72191729       0.00000000
