10
Lattice="16.290000149 0.0 0.0 0.0 16.290000149 0.0 0.0 0.0 29.1751946751" Properties=species:S:1:pos:R:3:initial_magmoms:R:1 pbc="T T T"
Si      -0.37155861      -0.63412084      -2.23050198       0.00000000
Si      -1.98868322      -0.60080779       1.17147159       0.00000000
Si       0.75334735       2.03364362       1.03154736       0.00000000
Si       1.49372785      -1.86246830       0.35176532       0.00000000
H       -2.25924383       2.07883208      -0.26254758       0.00000000
Si       1.79416433       0.70007905       2.64047182       0.00000000
H        2.75786445       1.93277594      -0.07705169       0.00000000
Si      -2.13415292      -2.12481875      -1.89163210       0.00000000
Si      -1.06243381      -1.64486648       3.00609536       0.00000000
H       -0.51026796       3.27971460      -1.41385911       0.00000000
