10
Lattice="16.290000149 0.0 0.0 0.0 16.290000149 0.0 0.0 0.0 29.1751946751" Properties=species:S:1:pos:R:3:initial_magmoms:R:1 pbc="T T T"
Si       1.34594009      -1.36107187       1.35512944       0.00000000
Si      -1.31396037      -1.38423625      -1.36356107       0.00000000
Si      -1.37981677       1.34832983       1.34100865       0.00000000
Si       1.32458390       1.38345107      -1.36189809       0.00000000
Si      -2.63097023       0.05080525      -2.63924646       0.00000000
Si       2.68066125      -0.01161477      -2.65147087       0.00000000
Si      -0.00984079       2.71750434       2.66605846       0.00000000
Si       2.66383368      -2.73146813      -0.03369735       0.00000000
Si       2.70263646       0.00154429       2.70532828       0.00000000
Si      -0.02962499      -2.70936260       2.70559085       0.00000000
