10
Lattice="16.290000149 0.0 0.0 0.0 16.290000149 0.0 0.0 0.0 29.1751946751" Properties=species:S:1:pos:R:3:initial_magmoms:R:1 pbc="T T T"
Si      -1.31054884      -1.33665869       1.36723715       0.00000000
Si      -1.46781250       1.28456849      -1.28122867       0.00000000
Si       1.23314283       1.35927931       1.44455141       0.00000000
Si       1.37874774      -1.39456965      -1.29823781       0.00000000
Si       2.61258819      -0.08776954       2.60388612       0.00000000
Si      -0.08596437       2.63011924      -2.65538034       0.00000000
Si       2.64019974       2.65711177       0.05624978       0.00000000
Si      -2.61394433       0.07523667       2.70602848       0.00000000
Si       2.71570389      -0.04411234      -2.66821743       0.00000000
Si      -2.58786404      -2.79640561       0.06754058       0.00000000
