10
Lattice="16.290000149 0.0 0.0 0.0 16.290000149 0.0 0.0 0.0 29.1751946751" Properties=species:S:1:pos:R:3:initial_magmoms:R:1 pbc="T T T"
Si      -0.46784880      -1.29687949       0.63213894       0.00000000
H        0.48048984      -1.54610020      -1.78240017       0.00000000
Si       1.52373403      -0.45796077      -2.06128585       0.00000000
Si       2.69723632      -0.60820345      -0.04819742       0.00000000
Si      -1.29153637      -0.32008221       2.57581959       0.00000000
Si       1.54693099      -2.66190005       0.55768385       0.00000000
Si      -2.38202156      -2.00498951      -0.58989326       0.00000000
Si      -2.79878493       0.99041572       1.28338764       0.00000000
Si      -1.88041988       2.81921259       0.10765647       0.00000000
Si       0.27580599       1.18711747      -3.21697367       0.00000000
