10
Lattice="16.290000149 0.0 0.0 0.0 16.290000149 0.0 0.0 0.0 29.1751946751" Properties=species:S:1:pos:R:3:initial_magmoms:R:1 pbc="T T T"
Si      -1.25126749       1.34248986       1.48716762       0.00000000
Si       1.35648460      -1.38640689       1.39871718       0.00000000
Si      -1.44682894      -1.44137342      -1.27492683       0.00000000
Si       1.52202358       1.37345715      -1.28286249       0.00000000
H       -0.64312921       1.15758207      -2.72192896       0.00000000
Si      -0.03842811      -2.62116039      -2.74564840       0.00000000
Si      -2.58752806      -0.06396106       2.83966254       0.00000000
Si      -2.88508772       2.52654481       0.27503456       0.00000000
Si       0.13607037       2.61778510       2.86463067       0.00000000
Si       3.72558819       0.99267840      -0.47794804       0.00000000
