10
Lattice="16.290000149 0.0 0.0 0.0 16.290000149 0.0 0.0 0.0 29.1751946751" Properties=species:S:1:pos:R:3:initial_magmoms:R:1 pbc="T T T"
Si       0.11976408      -2.30500570      -0.23159270       0.00000000
Si      -1.74579932      -0.32021090       1.49420760       0.00000000
Si      -0.98109784       0.86423338      -1.98583880       0.00000000
Si       1.83558980       1.18170593       1.00158443       0.00000000
H       -0.41472711       2.68727662       1.51159601       0.00000000
Si      -2.49950504       2.18257983      -0.78656325       0.00000000
Si       1.71994709      -2.22419101      -2.02542954       0.00000000
Si      -1.05893146       3.51635617       0.42079383       0.00000000
Si       0.40959576      -3.19424423       2.01084194       0.00000000
Si      -3.66349071       0.74149311       0.71581340       0.00000000
