10
Lattice="16.290000149 0.0 0.0 0.0 16.290000149 0.0 0.0 0.0 29.1751946751" Properties=species:S:1:pos:R:3:initial_magmoms:R:1 pbc="T T T"
Si       2.06907437      -0.72270097       0.84494281       0.00000000
Si       0.75411298       0.58812439      -2.15327524       0.00000000
Si      -1.28602872      -1.98729531      -0.11740098       0.00000000
Si      -0.60095440       1.51986027       1.75809723       0.00000000
H        0.68082427       1.55876079       2.57777433       0.00000000
H        0.13856274       1.89767425      -2.58506812       0.00000000
Si      -0.08381205       3.52173839       0.06716130       0.00000000
Si       1.28552536      -2.21998167       2.55405489       0.00000000
Si       3.11720556      -1.39459994      -1.22605838       0.00000000
Si      -1.96355426       0.13339230       3.09236641       0.00000000
