10
Lattice="16.28999089631971 0.0 0.0 0.0 16.28999089631971 0.0 0.0 0.0 34.61538196595647" Properties=species:S:1:pos:R:3:initial_magmoms:R:1 pbc="T T T"
Si       0.76054752       1.81216476       1.30393385       0.00000000
Si      -1.89814990      -0.71565228       1.21278804       0.00000000
Si       1.79704764      -1.67132631       0.15803807       0.00000000
Si      -0.48483927      -2.05145748       2.68078567       0.00000000
Si       2.25153864       0.67412907       2.71371184       0.00000000
Si       2.26970199       2.93623992      -0.04788553       0.00000000
Si       3.55739391      -0.62147002       1.25328114       0.00000000
Si       0.90673398      -3.51830510       1.25732421       0.00000000
Si      -1.42882848      -1.52160817      -3.29159094       0.00000000
Si      -2.74309102       2.77713549       0.00671411       0.00000000
