10
Lattice="16.28999089631971 0.0 0.0 0.0 16.28999089631971 0.0 0.0 0.0 34.61538196595647" Properties=species:S:1:pos:R:3:initial_magmoms:R:1 pbc="T T T"
Si      -1.84450041      -0.87998647      -1.27824292       0.00000000
Si       0.84292605       1.83225685      -1.39458529       0.00000000
Si      -0.45813996       0.98504653       2.21683953       0.00000000
Si       1.90136880      -1.58065195       0.06660003       0.00000000
Si      -0.37862847      -2.10396820      -2.78930904       0.00000000
Si       2.35138005       0.61440830      -2.78577827       0.00000000
Si       1.44308223       2.39833435       2.43363579       0.00000000
Si       0.89555904      -3.40037527      -1.31060832       0.00000000
Si       1.37249766       3.48754891       0.36758095       0.00000000
Si      -2.91709102      -2.50491397       0.11208467       0.00000000
