10
Lattice="16.28999089631971 0.0 0.0 0.0 16.28999089631971 0.0 0.0 0.0 34.61538196595647" Properties=species:S:1:pos:R:3:initial_magmoms:R:1 pbc="T T T"
Si       1.31370705      -1.06933866       1.64437002       0.00000000
Si      -0.49347297       2.29564496       0.49043101       0.00000000
Si       1.52533044      -0.50997264      -1.79944702       0.00000000
Si      -1.64752173      -1.77371826      -0.12323083       0.00000000
Si      -0.15506451      -3.39550179      -0.99076202       0.00000000
Si       1.52723637      -3.18930297       0.60331183       0.00000000
Si       0.37587546      -2.23793439      -2.95196681       0.00000000
Si       3.55236030      -0.39986853       1.55035459       0.00000000
Si       0.20421144      -1.08359241       3.74362104       0.00000000
Si      -2.79285534       2.62463780       0.75465036       0.00000000
