10
Lattice="16.28999089631971 0.0 0.0 0.0 16.28999089631971 0.0 0.0 0.0 34.61538196595647" Properties=species:S:1:pos:R:3:initial_magmoms:R:1 pbc="T T T"
Si       1.35708732      -1.35459495      -1.35533142       0.00000000
Si      -1.35843939      -1.35628911       1.35619681       0.00000000
Si       1.35674523       1.35812988       1.35636988       0.00000000
Si      -1.35671265       1.35677781      -1.36111219       0.00000000
Si       2.71010214      -0.01244556      -2.70818784       0.00000000
Si       2.71127502      -2.71407690      -0.00148846       0.00000000
Si       2.71243161       2.71435383      -0.00100385       0.00000000
Si      -0.00071676      -2.71375110       2.71370900       0.00000000
Si       2.71399545       0.00078192       2.71363977       0.00000000
Si      -2.71577106       0.00045612       2.71384746       0.00000000
