10
Lattice="16.28999089631971 0.0 0.0 0.0 16.28999089631971 0.0 0.0 0.0 34.61538196595647" Properties=species:S:1:pos:R:3:initial_magmoms:R:1 pbc="T T T"
Si       1.35568638       1.35622395      -1.35737373       0.00000000
Si      -1.35674523      -1.35812988      -1.35636988       0.00000000
Si       1.35725022      -1.35734796       1.35726989       0.00000000
Si      -1.35710361       1.35773892       1.35751219       0.00000000
Si       0.00034209      -2.71272483      -2.71170131       0.00000000
Si       2.71353933      -2.71384884      -0.00051923       0.00000000
Si       0.00089595      -2.71376739       2.71478208       0.00000000
Si       2.71309950       0.00415395      -2.71575131       0.00000000
Si       2.71570590       0.00029322       2.71353592       0.00000000
Si      -2.71518462      -2.71441899      -0.00017308       0.00000000
