10
Lattice="16.28999089631971 0.0 0.0 0.0 16.28999089631971 0.0 0.0 0.0 34.61538196595647" Properties=species:S:1:pos:R:3:initial_magmoms:R:1 pbc="T T T"
Si       2.15840871      -0.80337393      -0.34996171       0.00000000
Si      -1.37728692       1.09908630      -1.53882767       0.00000000
Si      -0.88343928      -1.85359023       1.16231595       0.00000000
Si       0.87519654       1.71447363       1.37391989       0.00000000
Si      -0.45965493      -0.75251655       3.21116693       0.00000000
Si       2.44576431       0.39017808      -2.41369732       0.00000000
Si       1.60902846       0.33635592       3.09208995       0.00000000
Si      -2.12568210      -0.80238024      -2.83410137       0.00000000
Si       2.98528911      -1.16882379       1.91495862       0.00000000
Si      -2.87428742       2.40112971      -0.20038856       0.00000000
