10
Lattice="16.28999089631971 0.0 0.0 0.0 16.28999089631971 0.0 0.0 0.0 34.61538196595647" Properties=species:S:1:pos:R:3:initial_magmoms:R:1 pbc="T T T"
Si       1.32507747       1.35159759      -1.38789067       0.00000000
Si      -1.36163223       1.35343836       1.36041989       0.00000000
Si       1.35239580      -1.36265850       1.36052373       0.00000000
Si      -1.36238157      -1.36617714      -1.36660566       0.00000000
Si       2.70980892      -2.71472850       0.00214615       0.00000000
Si       2.71220355       2.71252935      -0.00249231       0.00000000
Si       2.71140534      -0.00343719       2.71741285       0.00000000
Si      -0.00373041       2.71169856       2.71730900       0.00000000
Si      -2.72034855       2.70992295      -0.00027692       0.00000000
Si      -0.00329058      -2.71888245       2.71789746       0.00000000
