10
Lattice="16.28999089631971 0.0 0.0 0.0 16.28999089631971 0.0 0.0 0.0 34.61538196595647" Properties=species:S:1:pos:R:3:initial_magmoms:R:1 pbc="T T T"
Si       1.35728280       1.35654975      -1.35751219       0.00000000
Si      -1.35751086       1.35744570       1.35671604       0.00000000
Si       1.35852084      -1.35803214       1.35747758       0.00000000
Si      -1.35897696      -1.35948195      -1.35751219       0.00000000
Si      -0.00198738       2.71389771       2.71478208       0.00000000
Si      -2.71436849       2.71437012      -0.00031154       0.00000000
Si      -2.71581667       0.00060273       2.71384746       0.00000000
Si       2.71518462       2.71480995      -0.00062308       0.00000000
Si      -2.71495819      -2.71516833      -0.00006923       0.00000000
Si       0.00013032      -2.71489140       2.71540516       0.00000000
