10
Lattice="16.28999089631971 0.0 0.0 0.0 16.28999089631971 0.0 0.0 0.0 34.61538196595647" Properties=species:S:1:pos:R:3:initial_magmoms:R:1 pbc="T T T"
Si      -1.90115703      -0.14416650      -1.37814297       0.00000000
Si       0.36178461       2.31247953      -0.26376936       0.00000000
Si       1.74283452      -1.56419838      -0.35255786       0.00000000
Si      -0.14040351       1.13871987       3.26890542       0.00000000
Si       0.29287791       2.28578022      -2.63412819       0.00000000
Si      -3.13665579       1.59093027      -0.29582322       0.00000000
Si      -1.03461048       0.55625463      -3.47133629       0.00000000
Si       1.02527631      -2.69063559      -2.27049340       0.00000000
Si       3.70102284      -0.34599960      -0.16317700       0.00000000
Si      -1.71633069       3.25940094       0.86476196       0.00000000
