10
Lattice="16.28999089631971 0.0 0.0 0.0 16.28999089631971 0.0 0.0 0.0 34.61538196595647" Properties=species:S:1:pos:R:3:initial_magmoms:R:1 pbc="T T T"
Si       1.35685926       1.35685926      -1.35623142       0.00000000
Si      -1.35790182      -1.35826020      -1.35688912       0.00000000
Si      -1.35772263       1.35736425       1.35803142       0.00000000
Si       1.35785295      -1.35777150       1.35771989       0.00000000
Si       0.00373041      -2.71169856      -2.71730900       0.00000000
Si      -0.00099369       2.71433754       2.71467823       0.00000000
Si       0.00123804      -2.71393029       2.71526669       0.00000000
Si      -2.71484253       2.71446786       0.00051923       0.00000000
Si      -2.71518462      -2.71480995       0.00062308       0.00000000
Si       2.71513575      -2.71513575       0.00010385       0.00000000
