10
Lattice="16.28999089631971 0.0 0.0 0.0 16.28999089631971 0.0 0.0 0.0 34.61538196595647" Properties=species:S:1:pos:R:3:initial_magmoms:R:1 pbc="T T T"
Si      -1.35531171       1.35408996      -1.36436604       0.00000000
Si       1.36234899      -1.36075257      -1.36426220       0.00000000
Si      -1.37569050      -1.34687349       1.36838143       0.00000000
Si       1.37125962       1.36282140       1.39863529       0.00000000
Si      -2.71311579       2.71363707      -0.00387692       0.00000000
Si      -2.71265967      -2.71655298      -0.00263077       0.00000000
Si       2.71682991       2.71342557      -0.00342692       0.00000000
Si       2.71590138      -2.71524978      -0.00893077       0.00000000
Si      -2.71204065      -0.00288333      -2.72101285       0.00000000
Si       0.00252495       2.71266274      -2.72080516       0.00000000
