10
Lattice="16.28999089631971 0.0 0.0 0.0 16.28999089631971 0.0 0.0 0.0 34.61538196595647" Properties=species:S:1:pos:R:3:initial_magmoms:R:1 pbc="T T T"
Si      -1.27418751       1.29640707      -1.47870071       0.00000000
Si      -1.97734536      -0.71255718       1.14043901       0.00000000
Si       1.43501868      -1.41506343      -1.46675840       0.00000000
Si       1.00580976       1.81972332       1.37720836       0.00000000
Si      -2.74005945       2.52038880       0.03236540       0.00000000
Si      -0.89555904       3.40037527       1.31060832       0.00000000
Si      -2.59929756      -2.72150514      -0.01575001       0.00000000
Si      -2.61540837      -0.07009587      -2.83981291       0.00000000
Si       0.09759339       2.64544713      -2.83901675       0.00000000
Si       2.76051969      -2.76701940      -0.08771543       0.00000000
