10
Lattice="16.28999089631971 0.0 0.0 0.0 16.28999089631971 0.0 0.0 0.0 34.61538196595647" Properties=species:S:1:pos:R:3:initial_magmoms:R:1 pbc="T T T"
Si      -1.97369640       1.01721276      -0.94565815       0.00000000
Si       1.28710548       1.34330598       1.54921229       0.00000000
Si      -0.22331961      -2.19473541       1.09325822       0.00000000
Si       1.65688848       0.97197543      -2.08762024       0.00000000
Si      -0.42771024       2.51753805      -2.08554331       0.00000000
Si       3.38976981       0.31778532       1.48645456       0.00000000
Si       1.89421749      -3.16737873       0.87538888       0.00000000
Si      -3.37597218       1.59953139       0.86697734       0.00000000
Si       3.73700745       0.30345012      -0.89660812       0.00000000
Si       0.05929560       1.94015529       3.43509396       0.00000000
