10
Lattice="16.28999089631971 0.0 0.0 0.0 16.28999089631971 0.0 0.0 0.0 34.61538196595647" Properties=species:S:1:pos:R:3:initial_magmoms:R:1 pbc="T T T"
Si       1.22780988      -0.59684931      -1.88588168       0.00000000
Si      -0.53093997      -1.15756740       1.96120479       0.00000000
Si       1.14945498       1.72796175       1.15251979       0.00000000
Si      -2.09709315       0.76623273      -0.89058504       0.00000000
Si      -2.02339719       0.46421613       2.82873598       0.00000000
Si       1.86163749       1.57560138      -2.61893203       0.00000000
Si       2.00482659       2.89523052      -0.66156955       0.00000000
Si      -3.44748528       0.37190070       0.99730433       0.00000000
Si      -0.37587546       2.23793439       2.95196681       0.00000000
Si      -0.19355778      -3.43228671       1.66389311       0.00000000
