10
Lattice="16.28999089631971 0.0 0.0 0.0 16.28999089631971 0.0 0.0 0.0 34.61538196595647" Properties=species:S:1:pos:R:3:initial_magmoms:R:1 pbc="T T T"
Si       0.34728651       1.17550269       1.94452017       0.00000000
Si       1.29741705      -1.69174908      -1.01765818       0.00000000
Si      -2.07813159      -1.12581819      -0.04690387       0.00000000
Si      -0.30584475       1.91915748      -1.41552761       0.00000000
Si      -2.14703829      -1.15251750      -2.41726270       0.00000000
Si       0.05224203      -1.69670124      -3.03005915       0.00000000
Si      -1.69321518       2.57730606       1.73997776       0.00000000
Si       2.10075840       2.68565085       1.41137376       0.00000000
Si       0.76058010       3.71667983      -0.23379242       0.00000000
Si       0.92339865      -0.28525419       3.71750791       0.00000000
