10
Lattice="16.28999089631971 0.0 0.0 0.0 16.28999089631971 0.0 0.0 0.0 34.61538196595647" Properties=species:S:1:pos:R:3:initial_magmoms:R:1 pbc="T T T"
Si      -1.75526379       1.60757865       0.05843080       0.00000000
Si       1.11698901       0.72843993       1.99045481       0.00000000
Si      -1.22616459      -2.07132237       0.02748463       0.00000000
Si       1.46504115      -0.01962945      -2.00243174       0.00000000
Si      -2.11913352      -1.61546301      -2.14539334       0.00000000
Si      -0.34741683      -0.76849704      -3.47268629       0.00000000
Si      -3.16154691       0.67909752      -1.70747390       0.00000000
Si       1.31434236       3.08079738       1.57368537       0.00000000
Si      -3.32047215      -1.37152026       1.03918896       0.00000000
Si      -0.80909172       3.74593437      -0.16494239       0.00000000
