10
Lattice="16.28999089631971 0.0 0.0 0.0 16.28999089631971 0.0 0.0 0.0 34.61538196595647" Properties=species:S:1:pos:R:3:initial_magmoms:R:1 pbc="T T T"
Si       1.24634790      -1.42223103      -1.41542376       0.00000000
Si      -1.77171669      -0.84696597       1.32729295       0.00000000
Si      -1.44643797       1.32603858      -1.42875069       0.00000000
Si       1.81245798       0.74886759       1.47025456       0.00000000
Si       0.34741683       0.76849704       3.47268629       0.00000000
Si      -2.81413008       1.44759456       1.76521239       0.00000000
Si       2.60151300      -0.04298931      -2.79647443       0.00000000
Si       2.65036671       2.74092282       0.24943858       0.00000000
Si      -0.87874776      -1.30282533       3.50017092       0.00000000
Si      -2.85545781      -2.60210824       0.07106542       0.00000000
