10
Lattice="16.28999089631971 0.0 0.0 0.0 16.28999089631971 0.0 0.0 0.0 34.61538196595647" Properties=species:S:1:pos:R:3:initial_magmoms:R:1 pbc="T T T"
Si       2.10209418       0.71410473      -0.68389648       0.00000000
Si      -1.41946173       0.20683413      -1.83181242       0.00000000
Si      -0.31413636      -2.30586416       0.10710005       0.00000000
Si      -0.34731909       1.18472283       2.03490098       0.00000000
Si       3.28170195      -1.07948943       0.20810779       0.00000000
Si      -0.89842608       2.36209887      -2.57922817       0.00000000
Si       2.29457682      -1.76308462       2.28797418       0.00000000
Si      -0.50327955       3.52668726       1.23999291       0.00000000
Si      -2.65711077       0.88629003       2.55717816       0.00000000
Si       1.43871651       0.14051754       3.55389402       0.00000000
