10
Lattice="16.28999089631971 0.0 0.0 0.0 16.28999089631971 0.0 0.0 0.0 34.61538196595647" Properties=species:S:1:pos:R:3:initial_magmoms:R:1 pbc="T T T"
Si      -1.35628911       1.35650088       1.35778912       0.00000000
Si       1.35790182       1.35628911      -1.35799681       0.00000000
Si       1.35829278      -1.35744570       1.35823912       0.00000000
Si      -1.35900954      -1.35835794      -1.35733912       0.00000000
Si      -2.71319724       0.00112401      -2.71118208       0.00000000
Si      -2.71353933       2.71384884       0.00051923       0.00000000
Si      -2.71264338       0.00008145       2.71530131       0.00000000
Si       0.00216657       2.71414206       2.71405516       0.00000000
Si      -2.71375110      -2.71560164       0.00017308       0.00000000
Si       2.71516833       0.00021177       2.71453977       0.00000000
