10
Lattice="16.28999089631971 0.0 0.0 0.0 16.28999089631971 0.0 0.0 0.0 34.61538196595647" Properties=species:S:1:pos:R:3:initial_magmoms:R:1 pbc="T T T"
Si      -1.35625653       1.35391077       1.35623142       0.00000000
Si      -1.35687555      -1.35765747      -1.35630065       0.00000000
Si       1.35873261       1.35625653      -1.35643912       0.00000000
Si       1.35619137      -1.35601218       1.36370835       0.00000000
Si      -2.69175960       0.01301571       2.73143209       0.00000000
Si      -2.71300176       2.71393029      -0.00048462       0.00000000
Si      -2.71261080      -2.71548598       0.00038077       0.00000000
Si       0.00073305       2.71454931      -2.71402054       0.00000000
Si      -2.71516833      -0.00021177      -2.71453977       0.00000000
Si       2.71585251      -0.00071676      -2.71415900       0.00000000
