10
Lattice="16.28999089631971 0.0 0.0 0.0 16.28999089631971 0.0 0.0 0.0 34.61538196595647" Properties=species:S:1:pos:R:3:initial_magmoms:R:1 pbc="T T T"
Si       0.80145171      -1.73304423       1.26311599       0.00000000
Si      -2.29524471      -0.49200687       0.16220777       0.00000000
Si       0.26559216       1.90570194       1.35865450       0.00000000
Si       0.47483721      -0.83862549      -2.15183181       0.00000000
Si      -2.93495301       1.64201571      -0.59573106       0.00000000
Si      -1.75585023       2.99375991       0.86638888       0.00000000
Si       0.27748386      -3.19098294      -1.73506238       0.00000000
Si      -0.34881777      -3.62524176       0.51140794       0.00000000
Si       0.13779711       1.06344378       3.57016326       0.00000000
Si       1.11084768      -1.05158466       3.43312089       0.00000000
