10
Lattice="16.28999089631971 0.0 0.0 0.0 16.28999089631971 0.0 0.0 0.0 34.61538196595647" Properties=species:S:1:pos:R:3:initial_magmoms:R:1 pbc="T T T"
Si       0.34731909      -1.18472283      -2.03490098       0.00000000
Si      -2.30979168      -0.29843280       0.52227717       0.00000000
Si      -0.15596046       2.34196443      -0.79490808       0.00000000
Si       1.78603560      -1.04420529       1.51899304       0.00000000
Si      -2.70272277       1.87069473       1.34920450       0.00000000
Si       2.44941327      -0.47061810      -2.71879747       0.00000000
Si       2.64189591      -2.94780745       0.25307320       0.00000000
Si      -2.41536717       3.06424674      -0.71453111       0.00000000
Si       0.03318273      -3.49058699      -1.92780093       0.00000000
Si      -2.84099229      -1.85223816       2.17616643       0.00000000
