10
Lattice="16.28999089631971 0.0 0.0 0.0 16.28999089631971 0.0 0.0 0.0 34.61538196595647" Properties=species:S:1:pos:R:3:initial_magmoms:R:1 pbc="T T T"
Si       1.22181516       1.95093927      -0.13005006       0.00000000
Si       0.14529051      -1.30966713       1.91353938       0.00000000
Si      -2.10246885      -0.15240924      -0.98916971       0.00000000
Si      -0.43344432      -3.29313753       0.68701187       0.00000000
Si      -2.44291356      -2.47743207      -0.36328864       0.00000000
Si       2.48567481      -0.88586649       2.29963957       0.00000000
Si      -0.01718595       3.03769404      -1.79626240       0.00000000
Si      -3.47872950       1.35277047       0.18796163       0.00000000
Si       1.36067112       2.95902963       2.02039713       0.00000000
Si       3.51736938       2.08052622      -0.69320803       0.00000000
