10
Lattice="16.28999089631971 0.0 0.0 0.0 16.28999089631971 0.0 0.0 0.0 34.61538196595647" Properties=species:S:1:pos:R:3:initial_magmoms:R:1 pbc="T T T"
Si      -1.72131543      -1.01172303       1.38133248       0.00000000
Si       1.01819016       1.90544130       1.16933737       0.00000000
Si       1.81283265      -1.67614326      -0.11613467       0.00000000
Si      -1.51524693      -0.76095477      -2.05362791       0.00000000
Si       0.11609883      -2.56023414      -1.89027783       0.00000000
Si      -0.22397121      -2.19612006       2.73537621       0.00000000
Si       2.46905901       0.56663136       2.72119428       0.00000000
Si      -2.90901933      -2.63922435      -0.03098078       0.00000000
Si       1.02050334      -3.57964605       1.32893168       0.00000000
Si       3.73317930      -0.72461178       1.28309397       0.00000000
