10
Lattice="16.28999089631971 0.0 0.0 0.0 16.28999089631971 0.0 0.0 0.0 34.61538196595647" Properties=species:S:1:pos:R:3:initial_magmoms:R:1 pbc="T T T"
Si       1.23900111      -1.08675477       1.66621234       0.00000000
Si      -2.19773277       0.77502933      -0.26567321       0.00000000
Si       0.44370702      -0.57487410      -2.23428569       0.00000000
Si       1.46404746       1.88685441       0.21745395       0.00000000
Si      -0.11414403       1.59373215      -3.02812069       0.00000000
Si       3.35499066       0.73428804      -0.55114642       0.00000000
Si       0.01718595      -3.03769404       1.79626240       0.00000000
Si      -1.99466163       2.74730850       1.00779279       0.00000000
Si       0.83209320       3.21678630      -1.57292384       0.00000000
Si       2.72658762      -0.47728071      -2.46707427       0.00000000
