10
Lattice="16.28999089631971 0.0 0.0 0.0 16.28999089631971 0.0 0.0 0.0 34.61538196595647" Properties=species:S:1:pos:R:3:initial_magmoms:R:1 pbc="T T T"
Si       1.14981336      -1.72859706       1.39351221       0.00000000
Si      -1.78984746       1.06376958       1.40098914       0.00000000
Si       0.46600803       0.67170186      -2.42546655       0.00000000
Si      -1.17374337      -1.32822144      -2.35786268       0.00000000
Si      -0.50935572      -3.20155515      -0.91398506       0.00000000
Si       0.00879660       1.96763652       2.85480280       0.00000000
Si       1.84223610      -3.00459276      -0.40583096       0.00000000
Si       1.65848490       2.82136284      -1.72696237       0.00000000
Si       1.49025807       3.17742966       1.52113920       0.00000000
Si       3.12712614       2.26826847       0.00519231       0.00000000
