10
Lattice="16.28999089631971 0.0 0.0 0.0 16.28999089631971 0.0 0.0 0.0 34.61538196595647" Properties=species:S:1:pos:R:3:initial_magmoms:R:1 pbc="T T T"
Si      -2.16365409       0.73837683       0.27488090       0.00000000
Si      -0.13885596      -1.00809036      -2.15044719       0.00000000
Si       0.66438765      -1.87333371       1.44387762       0.00000000
Si       1.63975140       1.99992330      -0.06760388       0.00000000
Si       1.17374337       1.32822144       2.35786268       0.00000000
Si       3.31279956       0.56896083      -1.14805440       0.00000000
Si       2.15669826      -0.87850341      -2.71360515       0.00000000
Si       0.11056023       3.23299485      -1.54530075       0.00000000
Si      -2.12734368       2.83092507      -0.79646577       0.00000000
Si      -1.36067112      -2.95902963      -2.02039713       0.00000000
