10
Lattice="16.28999089631971 0.0 0.0 0.0 16.28999089631971 0.0 0.0 0.0 34.61538196595647" Properties=species:S:1:pos:R:3:initial_magmoms:R:1 pbc="T T T"
Si       1.35708732       1.35617658      -1.35785835       0.00000000
Si       1.35716877      -1.35721764       1.35709681       0.00000000
Si      -1.35853713      -1.35804843      -1.35688912       0.00000000
Si      -1.35855342       1.35800263       1.35758142       0.00000000
Si       2.71420722       0.00070047       2.71405516       0.00000000
Si       2.71547784       0.00016290      -2.71357054       0.00000000
Si       2.71467963      -2.71461447      -0.00024231       0.00000000
Si       0.00127062      -2.71541268       2.71412439       0.00000000
Si       2.71518462       2.71441314      -0.00013846       0.00000000
Si       0.00114030       2.71537914       2.71433208       0.00000000
