10
Lattice="16.28999089631971 0.0 0.0 0.0 16.28999089631971 0.0 0.0 0.0 34.61538196595647" Properties=species:S:1:pos:R:3:initial_magmoms:R:1 pbc="T T T"
Si       2.23865325       0.66947013      -0.09401543       0.00000000
Si      -1.31370705       1.06933866      -1.64437002       0.00000000
Si       0.21352932      -2.11996431      -1.04105819       0.00000000
Si      -1.10949561      -0.01425375       2.09925101       0.00000000
Si       0.21162339       0.55936602      -3.44381705       0.00000000
Si      -2.96122878      -0.70437960      -1.76760085       0.00000000
Si       2.45524509       0.30851631      -2.51055121       0.00000000
Si       3.28401513      -0.81679689       1.53958920       0.00000000
Si      -0.04307076       1.78326860       3.28098620       0.00000000
Si      -0.75140883      -3.63011247       0.48471946       0.00000000
