10
Lattice="16.28999089631971 0.0 0.0 0.0 16.28999089631971 0.0 0.0 0.0 34.61538196595647" Properties=species:S:1:pos:R:3:initial_magmoms:R:1 pbc="T T T"
Si      -1.35619137       1.35601218      -1.36370835       0.00000000
Si       1.36068741      -1.35978006      -1.36311989       0.00000000
Si      -1.35516510      -1.37924172       1.38105067       0.00000000
Si       1.36039419       1.37156913       1.38776605       0.00000000
Si      -2.60151300       0.04298931       2.79647443       0.00000000
Si      -2.71244790       2.70992295      -0.00747693       0.00000000
Si       2.71409319       2.71191033      -0.00218077       0.00000000
Si      -2.71419093      -2.71608749      -0.00270000       0.00000000
Si       0.00254124       2.71226871      -2.72014747       0.00000000
Si      -2.71306692      -0.00164529      -2.72000900       0.00000000
