10
Lattice="16.28999089631971 0.0 0.0 0.0 16.28999089631971 0.0 0.0 0.0 34.61538196595647" Properties=species:S:1:pos:R:3:initial_magmoms:R:1 pbc="T T T"
Si       1.58482152       0.97746516      -1.52595074       0.00000000
Si      -1.03747752      -1.75053059      -1.40922760       0.00000000
Si       1.30119633      -0.42566910       2.11396256       0.00000000
Si      -1.85557761       1.83383046      -0.06189234       0.00000000
Si       2.96020318       2.35188504      -0.17757701       0.00000000
Si       0.29387160       2.41354269      -2.94085526       0.00000000
Si      -2.42168769      -0.33726816      -2.94757065       0.00000000
Si       3.35286386       1.01138094       1.76323931       0.00000000
Si      -1.79804133      -3.59972252       0.08653850       0.00000000
Si      -3.66803559       1.08496287      -1.53214689       0.00000000
