10
Lattice="16.28999089631971 0.0 0.0 0.0 16.28999089631971 0.0 0.0 0.0 34.61538196595647" Properties=species:S:1:pos:R:3:initial_magmoms:R:1 pbc="T T T"
Si       1.57547106      -1.07969373      -1.53723536       0.00000000
Si      -1.85401377      -1.62503406       0.05877695       0.00000000
Si       1.80568134      -0.64478331       1.60254358       0.00000000
Si      -0.73712250       2.04344855       1.52667766       0.00000000
Si      -1.59772320       1.08880731      -1.90156246       0.00000000
Si      -1.54507392       2.99888963      -0.49146947       0.00000000
Si       0.39035727      -1.78075017       2.98792671       0.00000000
Si       2.46767340      -2.47050135       0.28035014       0.00000000
Si      -0.87680925      -3.19020984       1.54370844       0.00000000
Si      -2.95168284      -0.89807652      -1.95469710       0.00000000
