10
Lattice="16.28999089631971 0.0 0.0 0.0 16.28999089631971 0.0 0.0 0.0 34.61538196595647" Properties=species:S:1:pos:R:3:initial_magmoms:R:1 pbc="T T T"
Si      -0.99370629      -1.08631494       1.73315853       0.00000000
Si       2.25133406      -0.05494617      -0.32199246       0.00000000
Si      -0.95351886       2.08959975      -0.04956925       0.00000000
Si       2.25449432      -2.36760489      -0.73045420       0.00000000
Si       1.86183364      -1.02710079      -2.67127052       0.00000000
Si      -3.10464594       1.55527146       1.02053126       0.00000000
Si      -3.30199929      -0.79708599       1.43730069       0.00000000
Si      -1.24971993       2.42611857      -2.49417813       0.00000000
Si       3.34367630      -0.31962609       1.82180857       0.00000000
Si       0.20282679      -3.80465493      -0.37973095       0.00000000
