10
Lattice="16.28999089631971 0.0 0.0 0.0 16.28999089631971 0.0 0.0 0.0 34.61538196595647" Properties=species:S:1:pos:R:3:initial_magmoms:R:1 pbc="T T T"
Si      -1.35685667      -1.35653346      -1.35664681       0.00000000
Si       1.35854690       1.35770634      -1.35609296       0.00000000
Si       1.36017590      -1.35314514       1.36163143       0.00000000
Si      -1.35993548       1.35764118       1.36197758       0.00000000
Si      -2.71334126      -2.71404921       0.00103846       0.00000000
Si      -2.71436753       0.00102627      -2.71370900       0.00000000
Si       0.00049522      -2.71430333      -2.71388208       0.00000000
Si       2.69561381       0.00179190       2.73271286       0.00000000
Si       0.00048055       2.71598283      -2.71360515       0.00000000
Si       2.71587857       0.00096111      -2.71374362       0.00000000
