10
Lattice="16.28999089631971 0.0 0.0 0.0 16.28999089631971 0.0 0.0 0.0 34.61538196595647" Properties=species:S:1:pos:R:3:initial_magmoms:R:1 pbc="T T T"
Si       1.35379899      -1.35723393       1.35951989       0.00000000
Si       1.37973042       1.32944319      -1.36478143       0.00000000
Si      -1.36037790       1.35964485       1.35983143       0.00000000
Si      -1.35374787      -1.35571896      -1.38120644       0.00000000
Si      -0.05644485       2.60900640      -2.64875666       0.00000000
Si       2.71232640      -2.70871749      -0.00045000       0.00000000
Si       2.71301058       0.00071676       2.71682439       0.00000000
Si       2.71463469       2.71555929       0.00176539       0.00000000
Si      -0.00244350      -2.71378368       2.71672054       0.00000000
Si      -2.71655298       2.71622718       0.00360000       0.00000000
