10
Lattice="16.28999089631971 0.0 0.0 0.0 16.28999089631971 0.0 0.0 0.0 34.61538196595647" Properties=species:S:1:pos:R:3:initial_magmoms:R:1 pbc="T T T"
Si      -1.38184812      -1.32103755      -1.36212296       0.00000000
Si       1.35811359      -1.35641943       1.35889681       0.00000000
Si      -1.35509994       1.35922131       1.35955450       0.00000000
Si       1.36500426       1.36049193      -1.38169105       0.00000000
Si      -0.11772783      -2.61228069      -2.80022327       0.00000000
Si      -2.71513575      -2.70905958       0.00086539       0.00000000
Si       2.71700910      -2.71150308       0.00197308       0.00000000
Si       0.00120546      -2.71230129       2.71661669       0.00000000
Si      -2.71353933       0.00223173       2.71613208       0.00000000
Si      -2.71274112       2.71819827      -0.00377308       0.00000000
