10
Lattice="16.28999089631971 0.0 0.0 0.0 16.28999089631971 0.0 0.0 0.0 34.61538196595647" Properties=species:S:1:pos:R:3:initial_magmoms:R:1 pbc="T T T"
Si      -1.35650088      -1.35843939      -1.35688912       0.00000000
Si      -1.35751086       1.35739683       1.35733912       0.00000000
Si       1.35697329       1.35819504      -1.35709681       0.00000000
Si       1.35785295      -1.35790182       1.35726989       0.00000000
Si      -2.71340901      -0.00079821       2.71436669       0.00000000
Si       0.00079821       2.71477737      -2.71332823       0.00000000
Si      -2.71467963       2.71461447       0.00024231       0.00000000
Si       2.71446786       2.71497285       0.00020769       0.00000000
Si      -0.00047241       2.71531494       2.71429746       0.00000000
Si       2.71490769      -2.71523349      -0.00020769       0.00000000
