10
Lattice="16.28999089631971 0.0 0.0 0.0 16.28999089631971 0.0 0.0 0.0 34.61538196595647" Properties=species:S:1:pos:R:3:initial_magmoms:R:1 pbc="T T T"
Si       0.76056381       1.84919193      -1.49576611       0.00000000
Si      -1.86344568      -0.79988787      -1.49368918       0.00000000
Si      -0.34093341       0.02878443       2.50490890       0.00000000
Si       1.75842405      -1.82909007      -0.05095387       0.00000000
Si       2.09950407       0.56910744      -3.03909377       0.00000000
Si      -0.63166104      -2.15174610      -3.04286685       0.00000000
Si       3.39550389      -0.86949504      -1.59701615       0.00000000
Si       0.78071454      -3.42555894      -1.60397385       0.00000000
Si       1.79804133       3.59972252      -0.08653850       0.00000000
Si      -3.48474051      -2.03177025      -0.16591162       0.00000000
