10
Lattice="16.28999089631971 0.0 0.0 0.0 16.28999089631971 0.0 0.0 0.0 34.61538196595647" Properties=species:S:1:pos:R:3:initial_magmoms:R:1 pbc="T T T"
Si       1.57162566       1.04532930       1.44041608       0.00000000
Si       1.40374255      -1.28736612      -1.46270840       0.00000000
Si      -1.29599982       1.43860248      -1.44207762       0.00000000
Si      -1.63707984      -0.95959503       1.54606228       0.00000000
Si       3.40693037      -0.56268918       1.15816210       0.00000000
Si      -2.61478935      -2.55606390      -0.00695770       0.00000000
Si       2.64421628       2.67025680       0.05008849       0.00000000
Si      -2.63494008       2.71868697       0.10125005       0.00000000
Si       2.78497817      -2.57163714       0.00197308       0.00000000
Si      -3.39550389       0.86949504       1.59701615       0.00000000
