10
Lattice="16.28999089631971 0.0 0.0 0.0 16.28999089631971 0.0 0.0 0.0 34.61538196595647" Properties=species:S:1:pos:R:3:initial_magmoms:R:1 pbc="T T T"
Si       2.18766229      -0.57552570       0.55235796       0.00000000
Si      -1.38453012      -1.70536752      -0.89778505       0.00000000
Si      -1.02079071       0.52064469       2.10613948       0.00000000
Si       0.33750762       2.06348688      -1.23261983       0.00000000
Si       3.32713150      -0.26492427      -1.45675455       0.00000000
Si      -3.51583227      -1.02563469      -0.27979629       0.00000000
Si      -0.66861720       2.91043656       2.20015491       0.00000000
Si       2.93605747       1.32594084       1.84763166       0.00000000
Si      -3.20643630      -0.34417512       1.89020860       0.00000000
Si      -0.53443647       3.82806855       0.07698465       0.00000000
