10
Lattice="16.28999089631971 0.0 0.0 0.0 16.28999089631971 0.0 0.0 0.0 34.61538196595647" Properties=species:S:1:pos:R:3:initial_magmoms:R:1 pbc="T T T"
Si       1.98411290       1.27897581      -0.18360009       0.00000000
Si      -0.71187300      -1.55273022      -1.72225468       0.00000000
Si      -1.57547106       1.07969373       1.53723536       0.00000000
Si       0.89220234      -1.39080762       1.81758549       0.00000000
Si       0.23021028       0.43491042       3.13977894       0.00000000
Si      -2.28405348      -2.46658293      -0.16715777       0.00000000
Si      -0.81541224      -3.01967730       1.56499691       0.00000000
Si      -3.42948483      -0.54534033       1.59601231       0.00000000
Si       2.02389308       2.39453945      -2.21839722       0.00000000
Si      -3.17319426       2.16850104      -0.36432710       0.00000000
