10
Lattice="16.28999089631971 0.0 0.0 0.0 16.28999089631971 0.0 0.0 0.0 34.61538196595647" Properties=species:S:1:pos:R:3:initial_magmoms:R:1 pbc="T T T"
Si      -2.18766229       0.57552570      -0.55235796       0.00000000
Si       1.13946921       0.31060143      -2.00911251       0.00000000
Si       0.74839518       1.90146654       1.29527370       0.00000000
Si       0.77309082      -2.37130272       0.09000004       0.00000000
Si       3.33567072      -0.09645309      -1.09730822       0.00000000
Si       2.12568210       0.80238024       2.83410137       0.00000000
Si      -1.85015467       2.63901258      -1.78497778       0.00000000
Si      -3.20845301       1.09617039       1.55378152       0.00000000
Si       0.41821317      -1.43058780      -3.44582474       0.00000000
Si       3.14369307      -2.22226551      -0.14576545       0.00000000
