10
Lattice="16.28999089631971 0.0 0.0 0.0 16.28999089631971 0.0 0.0 0.0 34.61538196595647" Properties=species:S:1:pos:R:3:initial_magmoms:R:1 pbc="T T T"
Si       1.35283563      -1.35555586       1.36052373       0.00000000
Si       1.36218609       1.35571407      -1.35145450       0.00000000
Si      -1.36044306       1.35882546       1.36010835       0.00000000
Si      -1.37419182      -1.36987248      -1.38438067       0.00000000
Si      -0.12880503       2.49374976      -2.76123249       0.00000000
Si       2.71249677      -2.71327447      -0.00145385       0.00000000
Si       2.71182888       0.00205417       2.71751670       0.00000000
Si      -2.71632818      -2.71350253       0.00252692       0.00000000
Si       2.71238274       2.71877982       0.00616154       0.00000000
Si      -0.00324171      -2.71343737       2.71779362       0.00000000
