10
Lattice="16.28999089631971 0.0 0.0 0.0 16.28999089631971 0.0 0.0 0.0 34.61538196595647" Properties=species:S:1:pos:R:3:initial_magmoms:R:1 pbc="T T T"
Si       0.28763253       1.69310115      -1.55284690       0.00000000
Si       1.63584180      -1.58825871      -0.62390799       0.00000000
Si       0.84106899       1.21443579       1.93268170       0.00000000
Si      -2.23646550      -0.58911156      -0.91356967       0.00000000
Si      -1.29942072       2.23666587       2.28697033       0.00000000
Si       0.26639037      -2.95908990      -1.97248941       0.00000000
Si      -0.13615182       0.59202747      -3.60169789       0.00000000
Si      -1.95409953      -2.89105146      -1.25982753       0.00000000
Si      -1.52309871       3.20663763      -1.18038518       0.00000000
Si      -2.91094807       2.29884480       0.53003102       0.00000000
