10
Lattice="16.28999089631971 0.0 0.0 0.0 16.28999089631971 0.0 0.0 0.0 34.61538196595647" Properties=species:S:1:pos:R:3:initial_magmoms:R:1 pbc="T T T"
Si      -1.35655518      -1.35496565       1.35675065       0.00000000
Si      -1.35399765       1.35802864      -1.35969296       0.00000000
Si       1.35876369       1.35949474       1.35640450       0.00000000
Si       1.36096284      -1.35582902      -1.35861989       0.00000000
Si      -2.71404975      -2.71174346      -0.00055385       0.00000000
Si       0.00143950      -2.71303037       2.71339746       0.00000000
Si       2.71510493      -2.71229732      -0.00128077       0.00000000
Si      -2.71370766       0.00225093       2.71381285       0.00000000
Si      -2.71263252       2.71713429      -0.00166154       0.00000000
Si       2.71663619       0.00206249       2.71357054       0.00000000
