10
Lattice="16.28999089631971 0.0 0.0 0.0 16.28999089631971 0.0 0.0 0.0 34.61538196595647" Properties=species:S:1:pos:R:3:initial_magmoms:R:1 pbc="T T T"
Si       1.90115703       0.14416650       1.37814297       0.00000000
Si      -0.95298129      -2.12180508      -0.40081173       0.00000000
Si       0.86654655       0.70042113      -2.09319332       0.00000000
Si      -1.23549876       1.73509677       1.08231975       0.00000000
Si      -2.35549979      -1.34307792      -2.15072411       0.00000000
Si       2.19403494       2.42994672      -1.25598522       0.00000000
Si       2.26294164       2.45664603       1.11437361       0.00000000
Si       2.19260142      -1.16835138      -2.61052049       0.00000000
Si      -2.47547564       2.59649568      -0.74350420       0.00000000
Si       0.85774995      -3.63534156      -0.77327345       0.00000000
