10
Lattice="16.28999089631971 0.0 0.0 0.0 16.28999089631971 0.0 0.0 0.0 34.61538196595647" Properties=species:S:1:pos:R:3:initial_magmoms:R:1 pbc="T T T"
Si       1.27418751      -1.29640707       1.47870071       0.00000000
Si      -1.34122086      -1.36650294      -1.36111219       0.00000000
Si       1.37178090       1.34904006      -1.36031604       0.00000000
Si      -1.46587194       1.22398173       1.51106611       0.00000000
Si      -0.70315785      -2.00896425       2.61913972       0.00000000
Si       0.37862847       2.10396820       2.78930904       0.00000000
Si       2.27999727       0.52331625       2.85590907       0.00000000
Si      -2.70182682       2.69637686       0.02315770       0.00000000
Si      -2.69873172      -0.01011609      -2.72115131       0.00000000
Si       2.70920619      -2.71147050       0.01194231       0.00000000
