10
Lattice="16.290000149 0.0 0.0 0.0 16.290000149 0.0 0.0 0.0 29.1751946751" Properties=species:S:1:pos:R:3:initial_magmoms:R:1 pbc="T T T"
Si      -1.36182772       1.36959805       1.26267325       0.00000000
Si      -1.41991786      -1.31053051      -1.31311716       0.00000000
Si       1.33793029       1.44612847      -1.25698409       0.00000000
Si       1.29692836      -1.30375387       1.45983922       0.00000000
Si      -2.77773825       0.04365720       2.50072264       0.00000000
Si       2.68257206       0.08138484      -2.60706622       0.00000000
Si      -0.04070871      -2.65686644      -2.63504523       0.00000000
Si       2.68051952      -2.64727163       0.12437385       0.00000000
Si      -0.04944015       2.78927157      -2.60289417       0.00000000
Si      -2.78172930       0.08420301      -2.61748177       0.00000000
