10
Lattice="16.290000149 0.0 0.0 0.0 16.290000149 0.0 0.0 0.0 29.1751946751" Properties=species:S:1:pos:R:3:initial_magmoms:R:1 pbc="T T T"
Si       1.32842182      -1.36068742       1.37412249       0.00000000
Si      -1.37011445      -1.36928854      -1.32469971       0.00000000
Si      -1.36565099       1.35146728       1.34938193       0.00000000
Si       1.36758298       1.36503685      -1.34439297       0.00000000
Si      -2.69501274       0.01440036      -2.68440966       0.00000000
Si       0.00945960      -2.71749131      -2.66585424       0.00000000
Si       2.68396160       0.00674406       2.71218445       0.00000000
Si      -0.02306012       2.71269227       2.70299426       0.00000000
Si       2.72644592       0.00943191      -2.69858881       0.00000000
Si       2.71237136      -2.71601381       0.03994084       0.00000000
