10
Lattice="16.290000149 0.0 0.0 0.0 16.290000149 0.0 0.0 0.0 29.1751946751" Properties=species:S:1:pos:R:3:initial_magmoms:R:1 pbc="T T T"
Si      -1.38155165       1.43481018      -1.17529354       0.00000000
Si       1.52464627      -1.27006615      -1.21503016       0.00000000
Si       0.85079413       1.67146805       1.38844751       0.00000000
Si      -0.91520479      -1.74053765       1.27656064       0.00000000
H        0.23491809       2.99809308       1.01666801       0.00000000
Si       2.56044593      -2.10421190       0.73393120       0.00000000
Si       0.11772783      -2.66846492      -2.51825693       0.00000000
Si      -2.61178190       0.07207722      -2.61450590       0.00000000
Si       0.13310559       1.05899499       3.55024191       0.00000000
Si       0.73199116      -3.40081446       1.37053394       0.00000000
