10
Lattice="16.290000149 0.0 0.0 0.0 16.290000149 0.0 0.0 0.0 29.1751946751" Properties=species:S:1:pos:R:3:initial_magmoms:R:1 pbc="T T T"
Si       0.34784037      -0.88405831      -2.13454477       0.00000000
Si      -1.82215055       1.45634230       0.16673624       0.00000000
Si       1.62132742       1.68709016       0.06859088       0.00000000
Si       0.22605633      -1.51311295       1.83789139       0.00000000
H       -0.90508870      -1.47198070       2.84531086       0.00000000
Si       1.06432345       2.71803539       2.08089158       0.00000000
Si       2.29128626      -0.82407853       2.73622481       0.00000000
Si       1.40199886       0.87897583      -3.31692788       0.00000000
Si      -3.65060532       0.15973974       0.80333899       0.00000000
Si       0.45352989      -3.63879507       0.91335864       0.00000000
