10
Lattice="16.290000149 0.0 0.0 0.0 16.290000149 0.0 0.0 0.0 29.1751946751" Properties=species:S:1:pos:R:3:initial_magmoms:R:1 pbc="T T T"
Si      -2.19437705       0.72286876       0.46709487       0.00000000
Si      -0.26806824      -2.02792583       1.19524938       0.00000000
Si       1.57483576       1.30676752       1.20922429       0.00000000
Si      -0.28628046       0.88428637      -2.24033402       0.00000000
H        2.24821550      -0.95345371      -1.63153524       0.00000000
H        0.80943382      -1.86393440      -2.18160436       0.00000000
H        1.61816716      -2.60511311      -0.53125112       0.00000000
H        1.04739814      -2.48170007       1.79710447       0.00000000
Si      -2.15392898       2.86946724      -0.50936972       0.00000000
Si      -0.40739661       3.18839449      -2.00287711       0.00000000
