10
Lattice="16.290000149 0.0 0.0 0.0 16.290000149 0.0 0.0 0.0 29.1751946751" Properties=species:S:1:pos:R:3:initial_magmoms:R:1 pbc="T T T"
Si      -1.46650075      -1.38214135       1.21263779       0.00000000
Si       1.33879366      -1.33498180      -1.40516490       0.00000000
Si      -1.34822720       1.34651512      -1.39136503       0.00000000
Si       1.40691844       1.39839877       1.30322677       0.00000000
Si      -0.11772783       2.66846492       2.51825693       0.00000000
Si      -0.05336604      -2.60848514       2.58996956       0.00000000
Si       2.75618658       2.68644908      -0.06619852       0.00000000
Si      -2.80323210      -0.07864812       2.63834203       0.00000000
Si      -0.01044189       2.69884577      -2.75828126       0.00000000
Si       2.75633319      -2.71059086      -0.15124421       0.00000000
