10
Lattice="16.290000149 0.0 0.0 0.0 16.290000149 0.0 0.0 0.0 29.1751946751" Properties=species:S:1:pos:R:3:initial_magmoms:R:1 pbc="T T T"
Si       1.06000660      -1.10222214      -0.01309966       0.00000000
Si      -1.86217508       1.84163827      -0.71485062       0.00000000
Si      -0.34725393       2.56763471       0.90358495       0.00000000
H        1.25809300       2.18444504      -1.71013321       0.00000000
Si      -0.24892749       1.10876746       2.83437016       0.00000000
Si      -1.81856675      -0.58281059       2.40000986       0.00000000
Si      -1.24636420       0.76930014      -2.76221991       0.00000000
Si       2.93796994      -0.17769784       1.08881827       0.00000000
Si       1.33638274      -1.84866578      -2.21769407       0.00000000
Si       0.22375944      -3.03232977       1.01092050       0.00000000
