10
Lattice="16.290000149 0.0 0.0 0.0 16.290000149 0.0 0.0 0.0 29.1751946751" Properties=species:S:1:pos:R:3:initial_magmoms:R:1 pbc="T T T"
Si       1.39049812       1.34519563       1.27427331       0.00000000
Si       1.25752285      -1.40107033      -1.36433130       0.00000000
Si      -1.31481478       1.26412030      -1.47152972       0.00000000
Si      -1.40999725      -1.40463784       1.25808107       0.00000000
Si      -2.17080542      -0.67114801      -2.51285952       0.00000000
Si      -0.46558449      -2.34131285      -2.64189674       0.00000000
Si      -0.03552849       2.70508484       2.54356933       0.00000000
Si       2.71966228      -0.06421518       2.58520233       0.00000000
Si       2.57717576      -0.07376112      -2.72983777       0.00000000
Si       2.68532507       2.65963574      -0.19546797       0.00000000
