10
Lattice="16.290000149 0.0 0.0 0.0 16.290000149 0.0 0.0 0.0 29.1751946751" Properties=species:S:1:pos:R:3:initial_magmoms:R:1 pbc="T T T"
Si       1.42602661      -1.35988921      -1.26929602       0.00000000
Si       1.35653347       1.34952877       1.35428336       0.00000000
Si      -1.32388831      -1.38675142       1.38389618       0.00000000
Si      -1.33947784       1.33657822      -1.42194064       0.00000000
Si       0.03552849      -2.70508484      -2.54356933       0.00000000
Si      -2.68558571       2.61548984       0.03891971       0.00000000
Si       2.69710274       2.70317891      -0.03115911       0.00000000
Si       2.70169652      -0.03142341       2.70909188       0.00000000
Si       0.01246185       2.68009598       2.74109707       0.00000000
Si      -2.71244792      -0.06934653      -2.73354944       0.00000000
