10
Lattice="16.290000149 0.0 0.0 0.0 16.290000149 0.0 0.0 0.0 29.1751946751" Properties=species:S:1:pos:R:3:initial_magmoms:R:1 pbc="T T T"
Si       1.34789977      -1.34788348      -1.36577839       0.00000000
Si      -1.35347095      -1.37443618       1.34343019       0.00000000
Si      -1.35563752       1.32988303      -1.38754308       0.00000000
Si       1.36559071       1.33947784       1.37187600       0.00000000
Si      -0.01800045       2.68299560       2.70734137       0.00000000
Si      -2.72821664      -0.01699047       2.66500816       0.00000000
Si       2.68410332      -2.72339480      -0.01266203       0.00000000
Si      -0.01081656      -2.71327871      -2.69657572       0.00000000
Si      -2.73484668       2.67621896      -0.06561501       0.00000000
Si       2.71065602       2.71033022       0.00930689       0.00000000
