10
Lattice="16.290000149 0.0 0.0 0.0 16.290000149 0.0 0.0 0.0 29.1751946751" Properties=species:S:1:pos:R:3:initial_magmoms:R:1 pbc="T T T"
H       -0.64718542      -0.82559350       1.07673973       0.00000000
Si       1.23610150      -1.36585135      -1.41908147       0.00000000
Si      -1.57907116       1.08592399      -1.32151962       0.00000000
Si       1.27547443       1.46381941       1.29753761       0.00000000
H       -2.08596710      -1.73607419       0.52667061       0.00000000
Si      -3.18168138       1.01214658       0.46794095       0.00000000
H       -1.27723375      -2.47725290       2.17702385       0.00000000
Si       2.51079401      -0.02292003       2.65966910       0.00000000
Si      -0.28328310       2.67397094      -2.60152293       0.00000000
Si       2.55994094      -2.73787662      -0.08440384       0.00000000
