10
Lattice="16.290000149 0.0 0.0 0.0 16.290000149 0.0 0.0 0.0 29.1751946751" Properties=species:S:1:pos:R:3:initial_magmoms:R:1 pbc="T T T"
Si      -1.37099899       1.34587981       1.33820783       0.00000000
Si      -1.38530161      -1.35021295      -1.32496229       0.00000000
Si       1.36249561      -1.36586764       1.33543619       0.00000000
Si       1.37119447       1.35855343      -1.33692412       0.00000000
Si       0.00754227       2.68136660       2.68254245       0.00000000
Si      -0.05476698      -2.77045336      -2.61042137       0.00000000
Si      -0.00237834      -2.71356705       2.68490564       0.00000000
Si       2.69915528      -0.00026064      -2.70223571       0.00000000
Si      -2.72210789      -0.01888011       2.69345397       0.00000000
Si       2.72210789      -0.02181231       2.69829705       0.00000000
