10
Lattice="16.290000149 0.0 0.0 0.0 16.290000149 0.0 0.0 0.0 29.1751946751" Properties=species:S:1:pos:R:3:initial_magmoms:R:1 pbc="T T T"
Si       0.84450619      -1.87566320      -1.11846026       0.00000000
Si       1.48884085       1.25382502       1.37356817       0.00000000
Si      -1.38725641       1.31733973      -1.42550001       0.00000000
Si      -1.31367448      -1.36195804       1.48568844       0.00000000
H        1.38209248      -1.62245143      -2.50410696       0.00000000
H        2.66765042       0.13168836      -2.07505655       0.00000000
Si       0.00861741       2.54708308       2.72099536       0.00000000
H       -0.21667329      -0.77302567      -3.67058959       0.00000000
Si      -2.80145649       2.51067998       0.03168426       0.00000000
Si       2.53565255      -2.80378596       0.19004722       0.00000000
