10
Lattice="16.290000149 0.0 0.0 0.0 16.290000149 0.0 0.0 0.0 29.1751946751" Properties=species:S:1:pos:R:3:initial_magmoms:R:1 pbc="T T T"
Si       1.33105917       1.36041049       1.37807282       0.00000000
Si      -1.29482695      -1.31444011       1.46974128       0.00000000
Si      -1.38787543       1.36044307      -1.35695289       0.00000000
Si       1.40038778      -1.34856766      -1.36947780       0.00000000
Si      -0.10814931      -2.73339687      -2.53436980       0.00000000
Si       0.07110601       2.54086535      -2.77300306       0.00000000
Si      -2.68532507      -2.65963574       0.19546797       0.00000000
Si       2.67623525       2.69047271      -0.00320052       0.00000000
Si       2.70014897       0.01122381       2.74207152       0.00000000
Si       2.75819025      -2.68863194       0.01279041       0.00000000
