10
Lattice="16.290000149 0.0 0.0 0.0 16.290000149 0.0 0.0 0.0 29.1751946751" Properties=species:S:1:pos:R:3:initial_magmoms:R:1 pbc="T T T"
H       -0.00211770      -1.07761609      -1.05830101       0.00000000
Si       2.18244462       0.17474283       0.70749847       0.00000000
Si      -1.60746463      -0.69442642       1.55541715       0.00000000
Si      -0.43582266       2.12235896      -0.91254174       0.00000000
H       -1.88043617       2.39981024      -0.46560693       0.00000000
H        0.98272309       0.78174082      -3.16156997       0.00000000
Si      -3.12238578      -1.42042285      -0.06301842       0.00000000
Si       3.18373392      -0.06643062      -1.36224819       0.00000000
H       -1.26021070      -3.26206113       0.65183220       0.00000000
Si       3.02699154      -2.05671026       0.38905122       0.00000000
