10
Lattice="16.290000149 0.0 0.0 0.0 16.290000149 0.0 0.0 0.0 29.1751946751" Properties=species:S:1:pos:R:3:initial_magmoms:R:1 pbc="T T T"
Si       1.37407780      -1.34692726       1.33631144       0.00000000
Si       1.36487395       1.34769941      -1.34946945       0.00000000
Si      -1.34944732      -1.37004277      -1.35136584       0.00000000
Si      -1.35202114       1.34927954       1.37170095       0.00000000
Si       0.01923849      -2.70039821       2.67233113       0.00000000
Si       0.00237834       2.71356705      -2.68490564       0.00000000
Si      -2.73204479      -0.01059665      -2.67338144       0.00000000
Si      -2.71972955       2.69468694       0.00854833       0.00000000
Si       2.72448623       2.69175474       0.01339141       0.00000000
Si       2.72784197      -0.01487766      -2.69476686       0.00000000
