10
Lattice="16.290000149 0.0 0.0 0.0 16.290000149 0.0 0.0 0.0 29.1751946751" Properties=species:S:1:pos:R:3:initial_magmoms:R:1 pbc="T T T"
Si      -1.18638442      -1.14843410      -1.69294902       0.00000000
Si       0.59028445      -1.73402816       1.51853971       0.00000000
Si      -1.99246250       0.88393776       0.97401387       0.00000000
Si       1.39486384       1.40992558      -1.39285297       0.00000000
H        0.51199470       2.29908265       2.02610057       0.00000000
Si      -2.47446731      -2.58584856      -0.41090344       0.00000000
Si      -2.73007371       2.20859170      -0.81748895       0.00000000
Si      -2.61918767       0.47895207      -2.62305423       0.00000000
Si      -3.50780718      -0.96372944       0.90469361       0.00000000
H       -0.74609830       0.11463762       3.73623378       0.00000000
