10
Lattice="16.290000149 0.0 0.0 0.0 16.290000149 0.0 0.0 0.0 29.1751946751" Properties=species:S:1:pos:R:3:initial_magmoms:R:1 pbc="T T T"
Si      -1.34931700      -1.34330599      -1.31294211       0.00000000
Si       1.39287646      -1.28347282       1.36108118       0.00000000
Si       1.38451969       1.33507954      -1.34130040       0.00000000
Si      -1.18324045       1.44783892       1.41575550       0.00000000
Si       2.27584334       0.60727492       2.42340837       0.00000000
Si       0.67313539       2.38228220       2.51790683       0.00000000
Si      -2.65883753       0.08459397      -2.61001292       0.00000000
Si       0.08793342      -2.67773393      -2.59487099       0.00000000
Si      -2.72126081      -2.59649570       0.11970582       0.00000000
Si       0.01878237      -2.60416829       2.72102453       0.00000000
