10
Lattice="16.290000149 0.0 0.0 0.0 16.290000149 0.0 0.0 0.0 29.1751946751" Properties=species:S:1:pos:R:3:initial_magmoms:R:1 pbc="T T T"
Si       1.41991786       1.31053051       1.31311716       0.00000000
Si       1.37920915      -1.34633593      -1.32192807       0.00000000
Si      -1.34915410      -1.35790183       1.35326223       0.00000000
Si      -1.36181143       1.39473352      -1.30436460       0.00000000
Si       0.05809014       2.68012856       2.57579041       0.00000000
Si       0.00907353      -2.70822881      -2.64893263       0.00000000
Si      -2.71604801       0.04119741      -2.66477476       0.00000000
Si       2.73145835       0.04440654      -2.64942860       0.00000000
Si       0.01329264       2.73652454      -2.64726964       0.00000000
Si       2.73484668      -2.67621896       0.06561501       0.00000000
