10
Lattice="16.290000149 0.0 0.0 0.0 16.290000149 0.0 0.0 0.0 29.1751946751" Properties=species:S:1:pos:R:3:initial_magmoms:R:1 pbc="T T T"
Si      -1.61534899       0.15921846       1.67970348       0.00000000
Si       0.83624716       1.93010764      -1.02402016       0.00000000
Si       1.76125853      -1.16372503       1.03160571       0.00000000
Si      -1.55865979      -0.79278544      -1.59039821       0.00000000
H       -0.22375944       3.03232977      -1.01092050       0.00000000
Si      -2.04232619       2.44951918       1.38908937       0.00000000
Si       1.11262330       1.18366399      -3.22861457       0.00000000
Si       0.60900166      -2.80593624       2.21121718       0.00000000
Si      -2.48176523      -2.62699058      -0.42228177       0.00000000
Si      -0.41933718      -0.66112966      -3.65363880       0.00000000
