10
Lattice="16.290000149 0.0 0.0 0.0 16.290000149 0.0 0.0 0.0 29.1751946751" Properties=species:S:1:pos:R:3:initial_magmoms:R:1 pbc="T T T"
Si      -1.36715455      -1.34783461       1.35285961       0.00000000
Si       1.30398193       1.29552742       1.47632904       0.00000000
Si      -1.37176462       1.41094207      -1.30425374       0.00000000
Si       1.36238158      -1.34757397      -1.39238033       0.00000000
Si       2.66043395       2.63591750       0.16183772       0.00000000
Si       2.71047683      -2.70816365      -0.01275248       0.00000000
Si      -2.71135649      -2.71676477      -0.00930397       0.00000000
Si      -0.01635516      -2.66688479       2.76100038       0.00000000
Si      -2.73031805       0.02456532       2.70285422       0.00000000
Si      -2.78484069       0.11486079      -2.64859244       0.00000000
