10
Lattice="16.290000149 0.0 0.0 0.0 16.290000149 0.0 0.0 0.0 29.1751946751" Properties=species:S:1:pos:R:3:initial_magmoms:R:1 pbc="T T T"
Si      -1.34662915      -1.33377634      -1.38798363       0.00000000
Si      -1.34377840       1.30225519       1.42465393       0.00000000
Si       1.30289050       1.35469270      -1.43457933       0.00000000
Si       1.34794864      -1.38508984       1.36248159       0.00000000
Si       2.69332672       2.63985968       0.00151711       0.00000000
Si      -2.68931612       2.64692954       0.05867132       0.00000000
Si       2.66347204      -0.10262700      -2.72171307       0.00000000
Si      -2.68863194      -2.75169054      -0.02829994       0.00000000
Si       0.01348812       2.65007351       2.79259128       0.00000000
Si       2.71239905      -0.05584212       2.74203067       0.00000000
