10
Lattice="16.290000149 0.0 0.0 0.0 16.290000149 0.0 0.0 0.0 29.1751946751" Properties=species:S:1:pos:R:3:initial_magmoms:R:1 pbc="T T T"
Si      -1.40302513       1.31888728       1.31390489       0.00000000
Si       1.36941886      -1.23861016       1.44417214       0.00000000
Si       1.33389037       1.39730734      -1.33949154       0.00000000
Si      -1.39066102      -1.37647243      -1.31195015       0.00000000
Si       2.56937285      -2.64243350      -0.02765808       0.00000000
Si      -0.11544072       2.73035063       2.63227359       0.00000000
Si       2.63179613       0.03865617      -2.75737682       0.00000000
Si      -2.73057870      -0.01096317      -2.68709378       0.00000000
Si      -2.72686458       2.69091254      -0.02077274       0.00000000
Si       0.01140952      -2.66815541       2.75087076       0.00000000
