10
Lattice="16.290000149 0.0 0.0 0.0 16.290000149 0.0 0.0 0.0 29.1751946751" Properties=species:S:1:pos:R:3:initial_magmoms:R:1 pbc="T T T"
Si       1.31940856      -1.48872935      -1.21028627       0.00000000
Si       1.35990550       1.28370161       1.40957327       0.00000000
Si      -1.35135325      -1.39452428       1.30923978       0.00000000
Si      -1.38355858       1.32447711      -1.36299507       0.00000000
Si       2.69609276       2.62330652       0.08314639       0.00000000
Si      -2.69959511       2.64762749       0.03699706       0.00000000
Si      -2.67533930      -0.04235653       2.69369029       0.00000000
Si       0.02937087       2.70394202       2.69503235       0.00000000
Si       0.03365514      -2.75073195       2.64849791       0.00000000
Si      -2.68780115      -2.72157285      -0.09449262       0.00000000
