10
Lattice="16.290000149 0.0 0.0 0.0 16.290000149 0.0 0.0 0.0 29.1751946751" Properties=species:S:1:pos:R:3:initial_magmoms:R:1 pbc="T T T"
Si       1.06600132      -1.45209061      -1.48592184       0.00000000
Si      -1.31258305      -1.35819505       1.40472727       0.00000000
Si      -1.43793460       1.36120870      -1.28998123       0.00000000
Si       1.82604386       0.77962312       1.35886387       0.00000000
Si       2.20068128      -1.14940612       2.74442304       0.00000000
Si       0.33379839      -2.61180830       2.60700787       0.00000000
Si      -2.69895980       0.14240718       2.58786894       0.00000000
Si       2.44009541      -0.13139514      -2.84586519       0.00000000
Si       2.29473974      -2.97709527      -0.24206659       0.00000000
Si      -0.13602150       2.59991660      -2.79119087       0.00000000
