10
Lattice="16.290000149 0.0 0.0 0.0 16.290000149 0.0 0.0 0.0 29.1751946751" Properties=species:S:1:pos:R:3:initial_magmoms:R:1 pbc="T T T"
Si       1.34504902       1.33138171      -1.37187600       0.00000000
Si      -1.43705494       1.36940257       1.23580290       0.00000000
Si       1.33939639      -1.34889346       1.38132877       0.00000000
Si      -1.38088702      -1.35205372      -1.33960824       0.00000000
Si      -0.15905556      -2.70905960       2.55032047       0.00000000
Si       2.70609482       2.64051128       0.01508358       0.00000000
Si      -0.01208718      -2.73759969      -2.65371736       0.00000000
Si      -2.81114904       0.04870710       2.59574625       0.00000000
Si       2.71979471      -0.02606400      -2.69345397       0.00000000
Si      -0.01073511       2.66668931      -2.74923694       0.00000000
