10
Lattice="16.290000149 0.0 0.0 0.0 16.290000149 0.0 0.0 0.0 29.1751946751" Properties=species:S:1:pos:R:3:initial_magmoms:R:1 pbc="T T T"
Si       1.36026388      -1.35726978      -1.33928731       0.00000000
Si       1.37257912       1.34801380       1.34264246       0.00000000
Si      -1.34371324      -1.35504945       1.36647859       0.00000000
Si      -1.32963868       1.37039626      -1.37205106       0.00000000
Si       0.00210141       2.70435179       2.67626978       0.00000000
Si       2.70938540       0.01668096      -2.67577380       0.00000000
Si       0.04593780      -2.70353729       2.69984334       0.00000000
Si       0.00467523      -2.72961759      -2.67711586       0.00000000
Si      -2.68850162       2.72600120      -0.01785522       0.00000000
Si      -2.70045848      -2.71738379       0.01590048       0.00000000
