10
Lattice="16.290000149 0.0 0.0 0.0 16.290000149 0.0 0.0 0.0 29.1751946751" Properties=species:S:1:pos:R:3:initial_magmoms:R:1 pbc="T T T"
Si      -1.34504902      -1.33138171       1.37187600       0.00000000
Si       1.37474569      -1.35744571      -1.32157797       0.00000000
Si       1.36104580       1.30912957       1.38695958       0.00000000
Si      -1.35578413       1.33530760      -1.37736094       0.00000000
Si      -0.06757092       2.75374308       2.50798726       0.00000000
Si       0.00073305      -2.72212418      -2.65287128       0.00000000
Si      -2.78210397       0.03802086       2.60767890       0.00000000
Si       2.72821664       0.01699047      -2.66500816       0.00000000
Si      -2.72593604      -2.68343543       0.03226777       0.00000000
Si       2.71021619       2.69998607       0.04233321       0.00000000
