10
Lattice="16.290000149 0.0 0.0 0.0 16.290000149 0.0 0.0 0.0 29.1751946751" Properties=species:S:1:pos:R:3:initial_magmoms:R:1 pbc="T T T"
Si       0.46568223      -0.42536448       2.21232584       0.00000000
Si       1.82845478       1.29660256      -0.63660275       0.00000000
Si      -1.64719594       1.66027682      -0.09397330       0.00000000
Si      -0.66762937      -1.87613561      -1.29882132       0.00000000
H        1.82215055       0.14900463       2.49106565       0.00000000
Si       0.79265512       2.13074831      -2.58556410       0.00000000
Si      -2.08076407      -0.64979182      -2.67615308       0.00000000
Si      -3.41749542       0.65370142      -1.25044884       0.00000000
Si      -0.73199116       3.40081446      -1.37053394       0.00000000
Si       3.65060532      -0.15973974      -0.80333899       0.00000000
