10
Lattice="16.290000149 0.0 0.0 0.0 16.290000149 0.0 0.0 0.0 29.1751946751" Properties=species:S:1:pos:R:3:initial_magmoms:R:1 pbc="T T T"
Si      -1.37544616      -1.32118417       1.36417375       0.00000000
Si      -1.37279089       1.35063649      -1.34838997       0.00000000
Si       1.29052639      -1.36743148      -1.41400499       0.00000000
Si       1.40631571       1.32817258       1.35717171       0.00000000
Si       0.04209336      -2.69679323       2.61809444       0.00000000
Si      -0.00969255       2.70150104      -2.69800530       0.00000000
Si       0.04194675       2.70024671       2.70314014       0.00000000
Si       2.67955841      -0.00845451      -2.72805575       0.00000000
Si       2.60985350      -2.80955262      -0.13896145       0.00000000
Si      -2.73140948      -2.70138701       0.01021132       0.00000000
