10
Lattice="16.290000149 0.0 0.0 0.0 16.290000149 0.0 0.0 0.0 29.1751946751" Properties=species:S:1:pos:R:3:initial_magmoms:R:1 pbc="T T T"
Si       1.33903150      -1.35824392       1.36359025       0.00000000
Si      -1.35223943      -1.35247726      -1.36102283       0.00000000
Si      -1.32742976       1.34874685       1.39533286       0.00000000
Si       1.35866095       1.35223291      -1.36198561       0.00000000
Si      -2.67044253       2.70655094       0.02646190       0.00000000
Si       2.68987976       0.02751381       2.68761893       0.00000000
Si       0.03631041      -2.71329500      -2.68388451       0.00000000
Si      -2.69018601      -2.70946685       0.02024759       0.00000000
Si      -2.69740248       0.02847492      -2.71583135       0.00000000
Si       2.69896958       2.71456562       0.00355937       0.00000000
