10
Lattice="16.290000149 0.0 0.0 0.0 16.290000149 0.0 0.0 0.0 29.1751946751" Properties=species:S:1:pos:R:3:initial_magmoms:R:1 pbc="T T T"
Si      -1.36840888      -1.34416936       1.34249658       0.00000000
Si      -1.38228796       1.34557030      -1.33616557       0.00000000
Si       1.35019666      -1.36477621      -1.35562542       0.00000000
Si       1.36653553       1.36221868       1.35224110       0.00000000
Si       0.00504990       2.70423776      -2.64073440       0.00000000
Si      -0.00148239      -2.70080057       2.67136835       0.00000000
Si       2.71404434      -0.00413766      -2.68592677       0.00000000
Si      -2.70871751      -2.70650207      -0.02304840       0.00000000
Si      -2.70008381       2.71647155       0.05228195       0.00000000
Si      -2.68664456       0.01897785       2.73272378       0.00000000
