10
Lattice="16.290000149 0.0 0.0 0.0 16.290000149 0.0 0.0 0.0 29.1751946751" Properties=species:S:1:pos:R:3:initial_magmoms:R:1 pbc="T T T"
Si      -1.53989371      -1.30803814      -1.19603711       0.00000000
Si      -1.41420007       1.19334025       1.45718427       0.00000000
Si       1.38725641      -1.31733973       1.42550001       0.00000000
Si       0.79964353       1.48772825      -1.70065127       0.00000000
H        1.17058312      -2.09036540      -2.24508958       0.00000000
Si      -1.25045299       2.22043942      -2.55644726       0.00000000
Si      -0.18588519      -2.66473451      -2.52382939       0.00000000
Si      -2.56341723       0.24498531      -2.67539453       0.00000000
Si       0.03251484       2.61241103       2.76038187       0.00000000
Si       2.23176260      -3.19300293       0.30703975       0.00000000
