10
Lattice="16.290000149 0.0 0.0 0.0 16.290000149 0.0 0.0 0.0 29.1751946751" Properties=species:S:1:pos:R:3:initial_magmoms:R:1 pbc="T T T"
Si       1.25634997      -0.23962590      -1.93947942       0.00000000
Si      -0.33454773       2.11745567       0.93194324       0.00000000
Si       1.22355820      -1.31727457       1.52040692       0.00000000
Si      -2.06522993      -0.68903443      -0.89833342       0.00000000
H        2.57181635      -0.69340015      -1.33762433       0.00000000
H       -2.52097526       0.28339713       1.72466246       0.00000000
H        0.38120229      -3.05388633      -0.24860183       0.00000000
H       -1.23541732       2.03753693       2.15371287       0.00000000
H       -3.19637496      -0.64790218       0.10908605       0.00000000
Si       0.28838187      -2.23516721      -2.81803205       0.00000000
