10
Lattice="10.86 0.0 0.0 0.0 10.86 0.0 0.0 0.0 10.86" Properties=species:S:1:pos:R:3:initial_magmoms:R:1 pbc="T T T"
Si       1.17306462       1.53497412      -1.16067336       0.00000000
Si      -1.54193538      -1.18002588      -1.16067336       0.00000000
Si       1.17306462      -1.18002588       1.55432664       0.00000000
Si       2.53056462       0.17747412      -2.51817336       0.00000000
Si      -0.18443538      -2.53752588      -2.51817336       0.00000000
Si       2.53056462      -2.53752588       0.19682664       0.00000000
Si      -0.18443538       2.89247412      -2.51817336       0.00000000
Si      -2.89943538       0.17747412      -2.51817336       0.00000000
Si       2.53056462       2.89247412       0.19682664       0.00000000
Si      -2.89943538      -2.53752588       0.19682664       0.00000000
