10
Lattice="10.86 0.0 0.0 0.0 10.86 0.0 0.0 0.0 10.86" Properties=species:S:1:pos:R:3:initial_magmoms:R:1 pbc="T T T"
Si       1.65452100      -0.94490688      -0.98761926       0.00000000
Si      -1.06047900      -0.94490688       1.72738074       0.00000000
Si      -1.06047900       1.77009312      -0.98761926       0.00000000
Si       0.59037132       2.23105668       0.46878276       0.00000000
Si       0.29702100      -2.30240688      -2.34511926       0.00000000
Si      -2.41797900      -2.30240688       0.36988074       0.00000000
Si      -2.41797900       0.41259312      -2.34511926       0.00000000
Si       3.01202100      -2.30240688       0.36988074       0.00000000
Si       3.02281584       0.51895596      -2.32413774       0.00000000
Si       0.29702100      -2.30240688       3.08488074       0.00000000
