10
Lattice="10.86 0.0 0.0 0.0 10.86 0.0 0.0 0.0 10.86" Properties=species:S:1:pos:R:3:initial_magmoms:R:1 pbc="T T T"
Si      -1.65085032      -0.46096356      -1.45640202       0.00000000
Si      -0.59037132      -2.23105668      -0.46878276       0.00000000
Si       0.98662014       2.24038542      -1.28340222       0.00000000
Si      -0.46968414       0.97432662       2.78563344       0.00000000
Si      -0.28359804       0.96828846      -2.82126510       0.00000000
Si      -1.65085032       2.25403644       1.25859798       0.00000000
Si      -3.00835032       0.89653644      -0.09890202       0.00000000
Si      -0.30589362       3.60109998      -0.08266632       0.00000000
Si       1.06414968      -3.17596356      -1.45640202       0.00000000
Si      -1.65085032      -3.17596356       1.25859798       0.00000000
