10
Lattice="16.28999089631971 0.0 0.0 0.0 16.28999089631971 0.0 0.0 0.0 34.642051614445585" Properties=species:S:1:pos:R:3:initial_magmoms:R:1 pbc="T T T"
Si      -2.05810955       1.00576089      -0.39297965       0.00000000
Si      -0.46273374      -2.27783070       0.21737900       0.00000000
Si       0.46470483       1.04430303       2.12245040       0.00000000
Si       1.16199828       0.19554516      -2.13249661       0.00000000
Si      -1.69802073      -2.55173076      -1.81458632       0.00000000
Si      -2.90191689      -0.47739474      -2.02888217       0.00000000
Si       3.26456487       0.89036253      -1.18396206       0.00000000
Si       1.69010379      -3.18036186       0.42682496       0.00000000
Si      -1.48208049       3.28588848      -0.78921566       0.00000000
Si      -1.67234769      -2.50745454       2.20320107       0.00000000
