10
Lattice="16.28999089631971 0.0 0.0 0.0 16.28999089631971 0.0 0.0 0.0 34.642051614445585" Properties=species:S:1:pos:R:3:initial_magmoms:R:1 pbc="T T T"
Si      -1.61255850      -1.17024102       1.25086772       0.00000000
Si      -1.04169663       0.97700904      -1.89762336       0.00000000
Si       1.21420773       1.66348593       1.23371296       0.00000000
Si       1.89737775      -1.78440660       0.16441720       0.00000000
Si       1.24317135       0.02161683      -2.71140025       0.00000000
Si      -0.20316888      -2.48966586       2.73718577       0.00000000
Si       2.53439820       0.23796432       2.73029200       0.00000000
Si       3.06116793      -1.26447867      -1.82584499       0.00000000
Si       2.93620734       2.39213763      -0.35695190       0.00000000
Si      -2.89120325       0.23196960       2.71605757       0.00000000
