10
Lattice="16.28999089631971 0.0 0.0 0.0 16.28999089631971 0.0 0.0 0.0 34.642051614445585" Properties=species:S:1:pos:R:3:initial_magmoms:R:1 pbc="T T T"
Si       1.61007102       1.23894410      -1.32819228       0.00000000
Si       1.43760879      -1.24059657       1.53450518       0.00000000
Si      -1.28083383       1.47791839       1.52077652       0.00000000
Si      -0.87804729      -1.77963267      -1.53888536       0.00000000
Si      -2.60004690      -2.50828437       0.05177950       0.00000000
Si       2.76297948      -2.52320601      -0.02451619       0.00000000
Si       3.54838554      -0.41436384      -1.39186441       0.00000000
Si       0.08604378      -2.59372542       2.92289010       0.00000000
Si      -2.62989018       0.12121878       2.91887162       0.00000000
Si       2.73427650       2.86009232       0.11485925       0.00000000
