10
Lattice="16.28999089631971 0.0 0.0 0.0 16.28999089631971 0.0 0.0 0.0 34.642051614445585" Properties=species:S:1:pos:R:3:initial_magmoms:R:1 pbc="T T T"
Si      -1.35590045      -1.46712464       1.14239157       0.00000000
Si       1.06370442      -1.60607182      -1.34321166       0.00000000
Si      -1.63219514       1.14070725      -1.32679132       0.00000000
Si       2.02618767       0.69887358       1.13982806       0.00000000
Si       2.42980500      -0.23706837      -2.69830555       0.00000000
Si      -0.29393663       2.48280777      -2.70474898       0.00000000
Si       2.59112487       2.65114863      -0.04112014       0.00000000
Si       3.33098409      -1.38366608       0.99526670       0.00000000
Si      -1.56136622      -0.92748744       3.38203611       0.00000000
Si       2.14569111      -3.22036100       0.08362596       0.00000000
