10
Lattice="16.28999089631971 0.0 0.0 0.0 16.28999089631971 0.0 0.0 0.0 34.642051614445585" Properties=species:S:1:pos:R:3:initial_magmoms:R:1 pbc="T T T"
Si      -1.47800799       1.07694656       1.39898539       0.00000000
Si       1.70886987       0.36986445       1.52587930       0.00000000
Si       1.41793047      -1.40724979      -1.32561349       0.00000000
Si      -1.45899756       1.23404080      -1.44907783       0.00000000
Si       1.38539934      -1.96777240       2.04682676       0.00000000
Si       0.42805233       2.41427737      -2.41178098       0.00000000
Si      -2.64429054      -0.60265411      -2.36071857       0.00000000
Si       2.96337906      -2.29226920       0.21065843       0.00000000
Si       3.88389438      -0.07542596       0.66523169       0.00000000
Si      -0.74169999      -2.92334380       2.53988736       0.00000000
