10
Lattice="16.28999089631971 0.0 0.0 0.0 16.28999089631971 0.0 0.0 0.0 34.642051614445585" Properties=species:S:1:pos:R:3:initial_magmoms:R:1 pbc="T T T"
Si       1.39316967      -1.71136291       0.83646745       0.00000000
Si       1.57491720       0.98429719      -1.55965532       0.00000000
Si       0.06696819       1.27945570       2.06362817       0.00000000
Si      -2.13190488      -0.38158185      -1.11634074       0.00000000
Si       3.03481071      -0.22565071       1.60798101       0.00000000
Si       1.46552985      -0.60376767      -3.31593903       0.00000000
Si      -2.43035397      -2.72222257      -0.81852285       0.00000000
Si       3.60548199       1.06967308      -0.30914584       0.00000000
Si       0.84712887       3.23301766      -1.84645702       0.00000000
Si      -1.72134801       0.10331444      -3.44283294       0.00000000
