10
Lattice="16.28999089631971 0.0 0.0 0.0 16.28999089631971 0.0 0.0 0.0 34.642051614445585" Properties=species:S:1:pos:R:3:initial_magmoms:R:1 pbc="T T T"
Si      -1.21933908       1.42894251       1.43380068       0.00000000
Si       1.78012233       1.06953624      -1.19569290       0.00000000
Si      -1.90762416      -0.74619603      -1.26414716       0.00000000
Si       1.46706111      -1.31460300       1.43033300       0.00000000
Si      -2.67369399      -2.56010382      -0.01731411       0.00000000
Si       3.44031768      -0.75460167      -1.28067375       0.00000000
Si      -2.58287724       0.04802292       2.79962322       0.00000000
Si      -3.55714956       0.97801902      -1.03228175       0.00000000
Si       2.78322795      -2.64147237      -0.00577483       0.00000000
Si      -2.56754835       2.87511984       0.04899082       0.00000000
