10
Lattice="16.28999089631971 0.0 0.0 0.0 16.28999089631971 0.0 0.0 0.0 34.642051614445585" Properties=species:S:1:pos:R:3:initial_magmoms:R:1 pbc="T T T"
Si       1.35505107       1.33020882       1.36461007       0.00000000
Si       1.21933908      -1.42894251      -1.43380068       0.00000000
Si      -1.36353816      -1.38091959       1.36582254       0.00000000
Si      -1.34820927       1.44617733      -1.38480986       0.00000000
Si      -2.33781048      -0.45092349      -2.46608243       0.00000000
Si      -0.68828508      -2.17513854      -2.69794784       0.00000000
Si       2.70866862       2.70612738      -0.02301273       0.00000000
Si      -0.00273672       2.69167815       2.72566239       0.00000000
Si       2.68640019      -2.74354551      -0.00346767       0.00000000
Si       2.71210581      -0.02298519       2.72562775       0.00000000
