10
Lattice="16.28999089631971 0.0 0.0 0.0 16.28999089631971 0.0 0.0 0.0 34.642051614445585" Properties=species:S:1:pos:R:3:initial_magmoms:R:1 pbc="T T T"
Si      -0.72435114       2.04398775      -0.93679088       0.00000000
Si      -1.68106284      -0.93957462       1.37955119       0.00000000
Si       1.88880921       0.65181177       1.35502461       0.00000000
Si       0.07648155      -1.42361568      -2.00501378       0.00000000
Si      -2.27260161      -1.02156219      -2.56205829       0.00000000
Si       1.40274819       2.99955915      -1.42985148       0.00000000
Si      -1.48569687       0.38403675       3.27163182       0.00000000
Si       0.85835268       0.57534651       3.52264827       0.00000000
Si       0.76072671      -3.49309728      -1.23963187       0.00000000
Si      -2.00885022       1.39470093      -2.97859455       0.00000000
