10
Lattice="16.28999089631971 0.0 0.0 0.0 16.28999089631971 0.0 0.0 0.0 34.642051614445585" Properties=species:S:1:pos:R:3:initial_magmoms:R:1 pbc="T T T"
Si      -2.23809939       0.48176046       0.48990817       0.00000000
Si       0.44012322      -1.54712646       1.72205735       0.00000000
Si       1.69683156       1.59140268      -0.45422683       0.00000000
Si      -0.22287978      -1.22298804      -2.02243875       0.00000000
Si       2.20063239      -2.66519061       0.66401922       0.00000000
Si      -3.07050210      -1.77758109       0.32030059       0.00000000
Si       1.40589216      -2.86767531      -1.59149138       0.00000000
Si       0.59867379       3.11430591      -1.98575279       0.00000000
Si      -2.09785878      -2.64595212      -1.62218426       0.00000000
Si      -2.91068091       2.15137143      -1.00503576       0.00000000
