10
Lattice="16.28999089631971 0.0 0.0 0.0 16.28999089631971 0.0 0.0 0.0 34.642051614445585" Properties=species:S:1:pos:R:3:initial_magmoms:R:1 pbc="T T T"
Si      -0.95972535       1.40269932       1.60053296       0.00000000
Si      -1.21083570       0.17265771      -2.03092605       0.00000000
Si      -0.72477468      -2.17508967       0.75395003       0.00000000
Si       2.41691472       0.04570974      -0.22094713       0.00000000
Si       1.38287439      -3.14450757       1.27683745       0.00000000
Si      -0.88736517       2.51029456      -2.55187352       0.00000000
Si       2.90960577      -2.26711188      -0.38092421       0.00000000
Si      -1.52707347       0.02871927       3.41806386       0.00000000
Si      -3.33793503      -0.78291369      -1.53786546       0.00000000
Si       0.68191569       2.88841152       2.37204653       0.00000000
