10
Lattice="16.28999089631971 0.0 0.0 0.0 16.28999089631971 0.0 0.0 0.0 34.642051614445585" Properties=species:S:1:pos:R:3:initial_magmoms:R:1 pbc="T T T"
Si       0.72435114      -2.04398775       0.93679088       0.00000000
Si      -1.44531396       1.17475335       1.48340812       0.00000000
Si       2.12709933       0.95557140      -0.49306060       0.00000000
Si      -1.28449908      -0.64928682      -2.04180366       0.00000000
Si      -3.52770701       0.07385886       1.11173334       0.00000000
Si       0.80083269      -3.46760343      -1.06822290       0.00000000
Si       2.61316035      -1.39217598       2.29181549       0.00000000
Si       3.33793503       0.78291369       1.53786546       0.00000000
Si      -1.54825047      -3.06554994      -1.62526740       0.00000000
Si      -1.14686487       3.51539407       1.18559024       0.00000000
