10
Lattice="16.28999089631971 0.0 0.0 0.0 16.28999089631971 0.0 0.0 0.0 34.642051614445585" Properties=species:S:1:pos:R:3:initial_magmoms:R:1 pbc="T T T"
Si       1.64647917       1.01794581       1.50969249       0.00000000
Si      -1.05303447      -1.64455695       1.58980574       0.00000000
Si      -1.99454760       1.76151915      -0.00467668       0.00000000
Si       0.64915650      -0.11769525      -2.66189673       0.00000000
Si      -1.86958701      -1.89509715      -1.47356977       0.00000000
Si       0.32110848       2.30055525       3.06871386       0.00000000
Si      -3.03337719      -2.41502508       0.51669242       0.00000000
Si      -2.39635674      -0.39265416       3.08256722       0.00000000
Si       2.43188523       3.12678798       0.14234427       0.00000000
Si      -2.70430290       1.55615112      -2.51816678       0.00000000
