10
Lattice="16.28999089631971 0.0 0.0 0.0 16.28999089631971 0.0 0.0 0.0 34.642051614445585" Properties=species:S:1:pos:R:3:initial_magmoms:R:1 pbc="T T T"
Si      -0.67274442       2.18194776      -0.57069348       0.00000000
Si       1.34125344      -0.85149459      -1.73750771       0.00000000
Si       1.37106414       0.76289328       1.76400890       0.00000000
Si      -1.76994108      -1.39270703       0.87706795       0.00000000
Si      -3.38502942       0.33971166       0.54772578       0.00000000
Si      -2.39487435       2.44726299       0.90987399       0.00000000
Si       3.15786537      -1.68969980      -0.32314124       0.00000000
Si       0.31035708      -0.16438239       3.67940364       0.00000000
Si       3.50873568       0.07082892       1.19487431       0.00000000
Si       2.27330208       0.91605186      -3.09658544       0.00000000
