10
Lattice="16.28999089631971 0.0 0.0 0.0 16.28999089631971 0.0 0.0 0.0 34.642051614445585" Properties=species:S:1:pos:R:3:initial_magmoms:R:1 pbc="T T T"
Si      -1.64164104      -1.48571220      -0.77151356       0.00000000
Si       0.91748538      -1.14367107       1.84912446       0.00000000
Si       0.57067128       1.29532378      -1.91712685       0.00000000
Si      -0.71130285       2.12259515       0.81841893       0.00000000
Si      -2.96784252       1.50510640       0.45564716       0.00000000
Si      -3.03481071       0.22565071      -1.60798101       0.00000000
Si       0.27238509       3.43840360      -0.86705639       0.00000000
Si      -1.45989351       1.20994789      -3.16763633       0.00000000
Si      -2.20898916      -2.85969225       1.04601733       0.00000000
Si       0.11960118       2.21841292       3.03724357       0.00000000
