10
Lattice="16.28999089631971 0.0 0.0 0.0 16.28999089631971 0.0 0.0 0.0 34.642051614445585" Properties=species:S:1:pos:R:3:initial_magmoms:R:1 pbc="T T T"
Si      -0.81720414      -1.62966530      -1.51746128       0.00000000
Si      -1.61508834       1.73241869      -0.32934217       0.00000000
Si       1.76994108       1.39270703      -0.87706795       0.00000000
Si      -0.30646377      -1.44043527       1.96025623       0.00000000
Si      -0.27171720       1.89473225       3.14698965       0.00000000
Si       2.08029816       1.22832464       2.80233569       0.00000000
Si      -2.58761763      -1.13441768       2.56160794       0.00000000
Si      -1.73468952      -0.48599423      -3.36658574       0.00000000
Si      -2.65973346      -2.76141305      -0.50567031       0.00000000
Si      -0.62493327       3.83997002       0.03280604       0.00000000
