10
Lattice="16.28999089631971 0.0 0.0 0.0 16.28999089631971 0.0 0.0 0.0 34.642051614445585" Properties=species:S:1:pos:R:3:initial_magmoms:R:1 pbc="T T T"
Si      -2.28115386       0.30601759       0.60135171       0.00000000
Si       0.53118432      -2.29326272      -0.52655948       0.00000000
Si       1.08784620       0.11512322       2.15657284       0.00000000
Si       0.30646377       1.44043527      -1.96025623       0.00000000
Si       3.09032703       0.38788298       0.99159464       0.00000000
Si      -0.51074037      -0.18923003      -3.47771751       0.00000000
Si       0.03474657       3.33516752       1.18673343       0.00000000
Si      -2.31089940       2.64054563       0.79901937       0.00000000
Si      -1.55253474      -3.05879498      -1.13819988       0.00000000
Si      -2.35326969      -1.32097778      -2.46592654       0.00000000
