10
Lattice="16.28999089631971 0.0 0.0 0.0 16.28999089631971 0.0 0.0 0.0 34.642051614445585" Properties=species:S:1:pos:R:3:initial_magmoms:R:1 pbc="T T T"
Si      -1.31616684       1.32686937       1.43610784       0.00000000
Si       0.65708973       1.88687070      -1.27489892       0.00000000
Si       1.41569874      -1.34957763       1.44271754       0.00000000
Si      -1.12420548      -1.62114822      -1.44305153       0.00000000
Si       0.81410904      -3.27445616      -1.50672366       0.00000000
Si       2.63655279       2.68636761       0.00910740       0.00000000
Si       2.67525783      -2.72428747       0.03670327       0.00000000
Si      -2.78322795       2.64147237       0.00577483       0.00000000
Si      -2.64503988      -0.02521692       2.80536341       0.00000000
Si       0.06721254       2.69213427       2.80480913       0.00000000
