10
Lattice="16.28999089631971 0.0 0.0 0.0 16.28999089631971 0.0 0.0 0.0 34.642051614445585" Properties=species:S:1:pos:R:3:initial_magmoms:R:1 pbc="T T T"
Si      -1.35615879      -1.35588186       1.35692992       0.00000000
Si       1.35663120      -1.35731538      -1.35731098       0.00000000
Si      -1.35796698       1.35795069      -1.35727634       0.00000000
Si       1.35900954       1.35850455       1.35862738       0.00000000
Si      -0.00216657      -2.71143792       2.71327092       0.00000000
Si      -0.00143352      -2.71437012      -2.71396377       0.00000000
Si       2.71451673      -2.71441899       0.00003464       0.00000000
Si      -2.71497285      -2.71453302      -0.00027714       0.00000000
Si       2.71459818       0.00068418      -2.71493374       0.00000000
Si      -0.00019548       2.71583622      -2.71406769       0.00000000
