10
Lattice="16.28999089631971 0.0 0.0 0.0 16.28999089631971 0.0 0.0 0.0 34.642051614445585" Properties=species:S:1:pos:R:3:initial_magmoms:R:1 pbc="T T T"
Si       2.01671829       1.00204677       0.58164037       0.00000000
Si      -0.98368794      -1.31580846       1.68547532       0.00000000
Si      -1.63315395       1.47629754      -0.87481622       0.00000000
Si       0.29828619      -2.14307982      -1.05007046       0.00000000
Si      -0.27238509      -3.43840360       0.86705639       0.00000000
Si      -2.46006693       0.02026476      -2.58738164       0.00000000
Si      -1.73227860      -2.22845571      -2.30057993       0.00000000
Si       3.66479388       0.42603237      -1.04258777       0.00000000
Si       2.55950109       0.62224542       2.78588071       0.00000000
Si       2.19434445       3.32747685       0.15093550       0.00000000
