10
Lattice="16.28999089631971 0.0 0.0 0.0 16.28999089631971 0.0 0.0 0.0 34.642051614445585" Properties=species:S:1:pos:R:3:initial_magmoms:R:1 pbc="T T T"
Si       1.89304461       1.18876275       0.69886914       0.00000000
Si      -0.17762616      -2.32543008       0.43070487       0.00000000
Si       1.10661228      -0.64018071      -2.00137637       0.00000000
Si      -2.08430550       1.15657371      -0.12065833       0.00000000
Si       1.47044943      -2.90144448      -1.19352327       0.00000000
Si      -1.00548396      -0.37100475      -3.33641250       0.00000000
Si       0.85059864       2.71604799       2.15830495       0.00000000
Si      -2.97958761       0.08420301      -2.08074135       0.00000000
Si       0.36515664      -2.70523143       2.63494520       0.00000000
Si       3.28952115      -0.33104538       1.89634161       0.00000000
