10
Lattice="16.28999089631971 0.0 0.0 0.0 16.28999089631971 0.0 0.0 0.0 34.642051614445585" Properties=species:S:1:pos:R:3:initial_magmoms:R:1 pbc="T T T"
Si      -1.93285737       0.73883295       1.18441241       0.00000000
Si      -0.01622484       1.43571915      -1.91005987       0.00000000
Si       0.76243716      -2.18834973      -0.65161736       0.00000000
Si       2.12706675       1.09468800       0.47213679       0.00000000
Si       1.47439161       2.87650449      -0.85849980       0.00000000
Si       1.02622113      -0.09156609      -3.36949568       0.00000000
Si       2.42269767      -1.61137422      -2.17202321       0.00000000
Si       3.67694622      -0.27533358      -0.69824558       0.00000000
Si      -3.03101514       2.26173618      -0.34711355       0.00000000
Si       2.03836770      -3.07284786       1.05703351       0.00000000
