10
Lattice="16.28999089631971 0.0 0.0 0.0 16.28999089631971 0.0 0.0 0.0 34.642051614445585" Properties=species:S:1:pos:R:3:initial_magmoms:R:1 pbc="T T T"
Si      -1.17553527      -1.16634771       1.65821201       0.00000000
Si       2.12775093      -0.77802669      -0.67662893       0.00000000
Si      -1.22178258       1.63572777      -1.19889279       0.00000000
Si       0.31509747       2.28097467       1.80474797       0.00000000
Si       3.09312891       1.37217186      -0.71002389       0.00000000
Si       0.08146629       1.76544504      -3.14560397       0.00000000
Si       1.60647093      -1.72626759      -2.79758973       0.00000000
Si      -2.79624366      -2.43499662       0.41189422       0.00000000
Si      -1.11568581       3.56254155       0.34797960       0.00000000
Si      -2.20364604       0.50357277       2.99307493       0.00000000
