10
Lattice="16.28999089631971 0.0 0.0 0.0 16.28999089631971 0.0 0.0 0.0 34.642051614445585" Properties=species:S:1:pos:R:3:initial_magmoms:R:1 pbc="T T T"
Si      -0.02057427       0.90381807      -2.24200019       0.00000000
Si       0.70144740       1.87033635       1.47567051       0.00000000
Si      -1.92490785      -0.71537535       1.43378478       0.00000000
Si       1.69347582      -1.88965629       0.02823329       0.00000000
Si       2.04191892       0.57886515       2.86074018       0.00000000
Si      -0.69072858      -2.11447458       2.86566282       0.00000000
Si       3.35272635      -0.75059433       1.36111611       0.00000000
Si       2.36706732       2.90146077       0.05106241       0.00000000
Si       0.52618329      -3.48136848       1.41478014       0.00000000
Si       1.18687311       3.00240990      -2.27023348       0.00000000
