10
Lattice="16.28999089631971 0.0 0.0 0.0 16.28999089631971 0.0 0.0 0.0 34.642051614445585" Properties=species:S:1:pos:R:3:initial_magmoms:R:1 pbc="T T T"
Si      -1.35156501      -1.35312885       1.38838492       0.00000000
Si       1.36026387       1.36024173       1.38526713       0.00000000
Si       1.32537069      -1.28260944      -1.55902137       0.00000000
Si      -1.43760879       1.24059657      -1.53450518       0.00000000
Si       2.11077675       0.82623273      -2.92636959       0.00000000
Si       0.17246223       2.47954067      -2.86269746       0.00000000
Si      -2.71746522      -2.69320941       0.01385336       0.00000000
Si       2.71186146      -2.70588303      -0.00750001       0.00000000
Si      -2.71844262       2.71851497      -0.01372865       0.00000000
Si      -0.32110848      -2.30055525      -3.06871386       0.00000000
