10
Lattice="16.28999089631971 0.0 0.0 0.0 16.28999089631971 0.0 0.0 0.0 34.642051614445585" Properties=species:S:1:pos:R:3:initial_magmoms:R:1 pbc="T T T"
Si      -1.26514656       1.24734159       1.49185386       0.00000000
Si       0.76606983       1.81390779      -1.24683305       0.00000000
Si      -1.72450827      -0.89875188      -1.40303648       0.00000000
Si       1.44181161      -1.46354247       1.41745655       0.00000000
Si      -2.62336766       2.54656683       0.16727270       0.00000000
Si       2.67369399       2.56010382       0.01731411       0.00000000
Si      -2.61641183      -2.70261363       0.04327141       0.00000000
Si      -3.51662004       0.81630819      -1.13214376       0.00000000
Si      -0.88345557       3.53812284      -1.01496764       0.00000000
Si       0.09081675       2.60812674       2.81693732       0.00000000
