10
Lattice="16.28999089631971 0.0 0.0 0.0 16.28999089631971 0.0 0.0 0.0 34.642051614445585" Properties=species:S:1:pos:R:3:initial_magmoms:R:1 pbc="T T T"
Si       0.49269105      -2.31282162      -0.15997708       0.00000000
Si       0.53851482       1.66197096      -1.64463232       0.00000000
Si       1.53305190       0.51328161       1.78482878       0.00000000
Si      -2.41691472      -0.04570974       0.22094713       0.00000000
Si      -1.03404033      -3.19021731       1.49778458       0.00000000
Si       0.88075143       3.55683095      -0.35002349       0.00000000
Si       2.42317008       0.83411316      -2.69955266       0.00000000
Si       2.36737683       2.68071239       1.36060198       0.00000000
Si       2.88627849      -2.51209719       0.04981530       0.00000000
Si       0.58275846      -0.12825117       3.84035070       0.00000000
