10
Lattice="16.28999089631971 0.0 0.0 0.0 16.28999089631971 0.0 0.0 0.0 34.642051614445585" Properties=species:S:1:pos:R:3:initial_magmoms:R:1 pbc="T T T"
Si       2.08371906       0.76553226       0.61164041       0.00000000
Si      -0.80073495       1.73781720      -1.32772665       0.00000000
Si       0.42684687      -1.96880940      -1.18351171       0.00000000
Si      -1.30324887      -0.12971727       1.94671118       0.00000000
Si      -0.08146629      -1.76544504       3.14560397       0.00000000
Si       1.55253474       3.05879498       1.13819988       0.00000000
Si      -3.40581546      -0.82453464       0.99817663       0.00000000
Si      -2.30957991       2.94628520       0.01732104       0.00000000
Si       1.63729161      -1.28114334      -3.14151621       0.00000000
Si       1.52500464      -3.49171263       0.34801425       0.00000000
