10
Lattice="16.28999089631971 0.0 0.0 0.0 16.28999089631971 0.0 0.0 0.0 34.642051614445585" Properties=species:S:1:pos:R:3:initial_magmoms:R:1 pbc="T T T"
Si       1.35480294      -1.35255774       1.35789990       0.00000000
Si      -1.35822762      -1.35519402      -1.35748419       0.00000000
Si       1.35635387       1.35973445      -1.35779597       0.00000000
Si      -1.35853713       1.35848011       1.36361584       0.00000000
Si       2.71457442      -2.71158357       0.00131640       0.00000000
Si       2.71021847      -0.01500309       2.71787832       0.00000000
Si      -0.00053757      -2.71335918      -2.71489910       0.00000000
Si       2.71428934       0.00248585      -2.71462197       0.00000000
Si      -2.71619460      -2.71313112       0.00034642       0.00000000
Si      -2.71586880       0.00209327      -2.71528017       0.00000000
