10
Lattice="16.28999089631971 0.0 0.0 0.0 16.28999089631971 0.0 0.0 0.0 34.642051614445585" Properties=species:S:1:pos:R:3:initial_magmoms:R:1 pbc="T T T"
Si      -1.34125344       0.85149459       1.73750771       0.00000000
Si       0.93204864       1.76754645      -1.35907773       0.00000000
Si      -0.74350818      -1.18919606      -1.98440175       0.00000000
Si       1.81661193      -0.83820521       1.41436647       0.00000000
Si       2.60547147       0.13971933      -2.02721935       0.00000000
Si       1.38510612      -1.59218460      -2.99903337       0.00000000
Si       3.60569280      -0.81633914      -0.10184769       0.00000000
Si       2.16748224       0.92232351       2.93238202       0.00000000
Si      -2.01399786       3.03344235       1.16681423       0.00000000
Si       0.02981070       1.61438787       3.50151661       0.00000000
