10
Lattice="16.28999089631971 0.0 0.0 0.0 16.28999089631971 0.0 0.0 0.0 34.642051614445585" Properties=species:S:1:pos:R:3:initial_magmoms:R:1 pbc="T T T"
Si       2.13767154      -0.69206436      -0.56913458       0.00000000
Si      -1.37106414      -0.76289328      -1.76400890       0.00000000
Si      -1.06070706      -0.92727567       1.91539475       0.00000000
Si       0.49622598       2.33176689       0.15575075       0.00000000
Si      -0.68439177       2.57196294       2.11888227       0.00000000
Si      -2.04380856       1.41905448      -2.33470237       0.00000000
Si      -0.02808396       0.65419011       3.34964577       0.00000000
Si      -0.77970456       3.21626502      -1.55290012       0.00000000
Si       1.78680123      -2.45259308      -2.08715013       0.00000000
Si      -2.97119826       1.88685441       1.40137570       0.00000000
