10
Lattice="16.28999089631971 0.0 0.0 0.0 16.28999089631971 0.0 0.0 0.0 34.642051614445585" Properties=species:S:1:pos:R:3:initial_magmoms:R:1 pbc="T T T"
Si      -1.35822110       1.29922524      -1.32458115       0.00000000
Si       1.26514656      -1.24734159      -1.49185386       0.00000000
Si       1.35596331       1.36078515       1.32508346       0.00000000
Si      -1.35527261      -1.35565380       1.33249687       0.00000000
Si       0.38169099       2.29078125      -2.50682150       0.00000000
Si       2.03121639       0.56656620      -2.73868691       0.00000000
Si      -2.25147348      -0.43103340      -2.62399762       0.00000000
Si      -0.45936171      -2.14609347      -2.89489034       0.00000000
Si      -2.71107231       0.00228060       2.68443833       0.00000000
Si       0.00013032      -2.71081890       2.68495796       0.00000000
