10
Lattice="16.28999089631971 0.0 0.0 0.0 16.28999089631971 0.0 0.0 0.0 34.642051614445585" Properties=species:S:1:pos:R:3:initial_magmoms:R:1 pbc="T T T"
Si      -1.33648047      -1.36945143       1.37515858       0.00000000
Si       1.41027417      -1.36863693      -1.30769314       0.00000000
Si       1.37761272       1.34947989       1.36975441       0.00000000
Si      -1.48037004       1.34304534      -1.42327988       0.00000000
Si      -2.70122409      -2.69289990       0.01033027       0.00000000
Si      -2.69728191       2.70993924       0.02760280       0.00000000
Si      -2.69259039      -0.01104462       2.73194993       0.00000000
Si       0.02065572       2.70490563       2.73229635       0.00000000
Si       2.73125476       2.70962973      -0.00338107       0.00000000
Si       0.02234988      -2.72684826       2.73253884       0.00000000
