10
Lattice="16.28999089631971 0.0 0.0 0.0 16.28999089631971 0.0 0.0 0.0 34.642051614445585" Properties=species:S:1:pos:R:3:initial_magmoms:R:1 pbc="T T T"
Si      -1.24027173      -1.67101191      -1.11696429       0.00000000
Si       1.61971048       0.59616513      -1.63631822       0.00000000
Si       1.21306158      -1.05419106       1.81191888       0.00000000
Si      -1.26195372       1.96907004       0.67032407       0.00000000
Si       2.74759262       2.33399862      -0.44175569       0.00000000
Si       0.43315110      -3.29883903      -1.78510592       0.00000000
Si       2.31923078       0.57223512       3.07330597       0.00000000
Si      -2.92221423       1.39209453       2.19072993       0.00000000
Si      -0.00770517       3.30511068       2.14410170       0.00000000
Si      -3.08102544      -0.60132906      -2.41954081       0.00000000
