10
Lattice="16.28999089631971 0.0 0.0 0.0 16.28999089631971 0.0 0.0 0.0 34.642051614445585" Properties=species:S:1:pos:R:3:initial_magmoms:R:1 pbc="T T T"
Si      -1.66026051      -0.57697551       1.52040585       0.00000000
Si       1.25424855       1.33604064       1.47377763       0.00000000
Si      -1.39647654       1.51980813      -1.19747247       0.00000000
Si       1.26195372      -1.96907004      -0.67032407       0.00000000
Si       2.73341054       2.14549074      -0.21142056       0.00000000
Si      -0.38432997      -1.46147364       3.22905672       0.00000000
Si       1.70720829      -0.24679350       3.17806359       0.00000000
Si      -2.42269767       1.61137422       2.17202321       0.00000000
Si      -0.29563092       2.70606222       2.64415999       0.00000000
Si      -3.28952115       0.33104538      -1.89634161       0.00000000
