10
Lattice="16.28999089631971 0.0 0.0 0.0 16.28999089631971 0.0 0.0 0.0 34.642051614445585" Properties=species:S:1:pos:R:3:initial_magmoms:R:1 pbc="T T T"
Si       1.18061775      -0.24019605      -1.96313152       0.00000000
Si       0.65630781      -1.91777283       1.23076350       0.00000000
Si       0.71048835       1.88553492       1.33205691       0.00000000
Si      -2.28680649      -0.68510853      -0.71750657       0.00000000
Si       0.68439177      -2.57196294      -2.11888227       0.00000000
Si      -0.37631529      -3.49923861      -0.20348752       0.00000000
Si       0.20103489      -1.20293505       3.44494611       0.00000000
Si      -0.09531279       0.64430208      -3.67178239       0.00000000
Si      -1.29963249       2.99491650       1.85445934       0.00000000
Si      -2.90750436       1.23059547       2.25790090       0.00000000
