10
Lattice="16.28999089631971 0.0 0.0 0.0 16.28999089631971 0.0 0.0 0.0 34.642051614445585" Properties=species:S:1:pos:R:3:initial_magmoms:R:1 pbc="T T T"
Si      -1.20513420      -2.05741071      -0.11019643       0.00000000
Si       2.29861674      -0.89407665       0.36349925       0.00000000
Si      -0.69568074       1.03105926      -2.22308562       0.00000000
Si      -0.71568486       1.23127965       2.14496775       0.00000000
Si      -0.74986128      -2.77224849      -2.32437904       0.00000000
Si       1.13225274       2.52221328      -2.51030303       0.00000000
Si      -3.51000630      -1.56867813      -0.03831413       0.00000000
Si      -2.70580158       2.14044084      -1.70068319       0.00000000
Si      -1.40616909      -0.85447566      -3.55514253       0.00000000
Si      -1.88297739      -0.36043254       3.53151460       0.00000000
