10
Lattice="16.28999089631971 0.0 0.0 0.0 16.28999089631971 0.0 0.0 0.0 34.642051614445585" Properties=species:S:1:pos:R:3:initial_magmoms:R:1 pbc="T T T"
Si       0.69651709      -1.43746218      -1.72895112       0.00000000
Si       2.00784743       1.35220032      -0.02584298       0.00000000
Si       0.49830200      -1.25504676       2.01522492       0.00000000
Si      -2.29861674       0.89407665      -0.36349925       0.00000000
Si       1.70534213       0.24480612      -3.02193178       0.00000000
Si       1.39155437       0.47521188       3.31464138       0.00000000
Si      -3.50375094      -1.16333406      -0.47369568       0.00000000
Si       2.77601867      -2.42965350      -0.71927332       0.00000000
Si       3.95494226      -0.35046306      -0.36034682       0.00000000
Si      -0.86240889      -2.83647996      -2.74223170       0.00000000
