10
Lattice="16.28999089631971 0.0 0.0 0.0 16.28999089631971 0.0 0.0 0.0 34.642051614445585" Properties=species:S:1:pos:R:3:initial_magmoms:R:1 pbc="T T T"
Si      -1.34423451      -1.35521397      -1.38571748       0.00000000
Si       1.36922337       1.35645201      -1.38523249       0.00000000
Si       1.24367634      -1.50891012       1.43871985       0.00000000
Si      -1.39953906       1.42661304       1.45195312       0.00000000
Si       0.17673021       2.65743657       2.63601911       0.00000000
Si       2.66232357      -0.22776678       2.71756654       0.00000000
Si      -2.70190827       2.72201013      -0.02688225       0.00000000
Si      -2.70111006      -2.72789082       0.01635106       0.00000000
Si       2.72935692       2.71674846      -0.01839494       0.00000000
Si      -2.70475902       0.00071676      -2.74694302       0.00000000
