10
Lattice="16.28999089631971 0.0 0.0 0.0 16.28999089631971 0.0 0.0 0.0 34.642051614445585" Properties=species:S:1:pos:R:3:initial_magmoms:R:1 pbc="T T T"
Si       1.35645201      -1.35726651      -1.35703385       0.00000000
Si      -1.35789367       1.35755973      -1.35672207       0.00000000
Si       1.35710361       1.35861858       1.35672207       0.00000000
Si      -1.35820970      -1.35721764       1.35862738       0.00000000
Si      -2.71288050      -0.00091224      -2.71444876       0.00000000
Si      -0.00138465       2.71358820      -2.71413698       0.00000000
Si      -0.00167787      -2.71401174      -2.71392912       0.00000000
Si       2.71394658      -0.00081450      -2.71455268       0.00000000
Si       2.71376739      -0.00156384       2.71476053       0.00000000
Si       0.00346977       2.71391400       2.71472589       0.00000000
