10
Lattice="16.28999089631971 0.0 0.0 0.0 16.28999089631971 0.0 0.0 0.0 34.642051614445585" Properties=species:S:1:pos:R:3:initial_magmoms:R:1 pbc="T T T"
Si      -2.06612586      -1.00822068       0.64108617       0.00000000
Si      -0.07778475       1.80152739       1.59828123       0.00000000
Si       1.95597288      -1.46811996       0.10655901       0.00000000
Si      -0.06108750       0.26479395      -2.46533762       0.00000000
Si       1.27226529       2.23505316      -2.24750828       0.00000000
Si      -1.27969353       0.82072278       3.34133167       0.00000000
Si       1.41175656      -2.95313265      -1.75250773       0.00000000
Si       3.19699625       1.93300398      -0.84173304       0.00000000
Si      -1.70228871      -3.26948445       1.44893926       0.00000000
Si       3.87149673      -0.31469022      -0.91555529       0.00000000
