10
Lattice="16.28999089631971 0.0 0.0 0.0 16.28999089631971 0.0 0.0 0.0 34.642051614445585" Properties=species:S:1:pos:R:3:initial_magmoms:R:1 pbc="T T T"
Si       1.13384657      -1.32483312       1.51437813       0.00000000
Si      -1.79413173      -0.96971112      -1.21472422       0.00000000
Si       1.71232402       0.45089091      -1.64678013       0.00000000
Si      -1.02587904       1.71115047       1.43452816       0.00000000
Si      -2.15532990       2.67950952      -0.39782954       0.00000000
Si      -2.73453714       1.03003299      -1.99760038       0.00000000
Si      -2.99604051      -1.95051573       0.52832622       0.00000000
Si       2.75410862       0.06431292       2.46256626       0.00000000
Si       1.38661850       2.78736561      -2.25260067       0.00000000
Si      -0.34531542      -2.13428322       3.19957632       0.00000000
