10
Lattice="16.28999089631971 0.0 0.0 0.0 16.28999089631971 0.0 0.0 0.0 34.642051614445585" Properties=species:S:1:pos:R:3:initial_magmoms:R:1 pbc="T T T"
Si      -1.25424855      -1.33604064      -1.47377763       0.00000000
Si       0.45295974      -1.58283414       1.70428597       0.00000000
Si      -1.54987947       1.37002158       1.17038237       0.00000000
Si       1.47916199       0.80945010      -1.68519818       0.00000000
Si      -2.91450906      -1.91301615       0.04662823       0.00000000
Si      -1.63857852      -2.79751428       1.75527909       0.00000000
Si       2.32693595      -2.73287556       0.92920427       0.00000000
Si      -3.67694622       0.27533358       0.69824558       0.00000000
Si      -2.65072509       0.18376749      -2.67125009       0.00000000
Si      -2.20255461       3.15183807      -0.16025422       0.00000000
