10
Lattice="16.28999089631971 0.0 0.0 0.0 16.28999089631971 0.0 0.0 0.0 34.642051614445585" Properties=species:S:1:pos:R:3:initial_magmoms:R:1 pbc="T T T"
Si       1.35671265      -1.35650088      -1.36226480       0.00000000
Si      -1.35887922       1.35870003      -1.36108697       0.00000000
Si       1.36013355       1.36029645       1.36683755       0.00000000
Si      -1.36922337      -1.35645201       1.38523249       0.00000000
Si      -2.71345788      -2.71166598      -0.00048499       0.00000000
Si       2.71253979      -2.71409319      -0.00055427       0.00000000
Si       2.71211832       2.71927341      -0.00353349       0.00000000
Si      -0.00115659      -2.71303434      -2.71912543       0.00000000
Si       2.71336099       0.00156384      -2.71881366       0.00000000
Si      -2.71653669       2.71606428      -0.00266744       0.00000000
