10
Lattice="16.28999089631971 0.0 0.0 0.0 16.28999089631971 0.0 0.0 0.0 34.642051614445585" Properties=species:S:1:pos:R:3:initial_magmoms:R:1 pbc="T T T"
Si      -1.35622395      -1.49227803       1.27901990       0.00000000
Si       1.41438155      -1.27011501      -1.45448199       0.00000000
Si       1.28468709       0.84222558       1.85619145       0.00000000
Si      -1.28919060       1.45223721      -1.45694158       0.00000000
Si       2.50019639       2.53447965      -0.04049658       0.00000000
Si       0.06321564      -2.62215243      -2.82433340       0.00000000
Si      -2.56725513       2.88640834      -0.06311785       0.00000000
Si      -2.64932415       0.09194076      -2.82377913       0.00000000
Si       2.73954536      -2.74134636      -0.11968836       0.00000000
Si      -2.77487118      -2.77342137       0.00017321       0.00000000
