10
Lattice="16.28999089631971 0.0 0.0 0.0 16.28999089631971 0.0 0.0 0.0 34.642051614445585" Properties=species:S:1:pos:R:3:initial_magmoms:R:1 pbc="T T T"
Si       1.98493650       0.65506977      -1.00541683       0.00000000
Si      -1.37595114      -1.13384916      -1.53464374       0.00000000
Si      -0.49278879       1.71013139       1.62890482       0.00000000
Si       0.19624563      -1.84595022       1.55127194       0.00000000
Si      -3.05193150      -0.97101432       0.11075070       0.00000000
Si       1.46517147       1.20441866       2.81518790       0.00000000
Si       3.06652834       1.44257628       1.05966631       0.00000000
Si      -2.12398794      -2.12981976       1.93469038       0.00000000
Si      -0.20339694      -3.09058767      -2.19578767       0.00000000
Si       1.03363308      -0.97810047       3.57977305       0.00000000
