10
Lattice="16.28999089631971 0.0 0.0 0.0 16.28999089631971 0.0 0.0 0.0 34.642051614445585" Properties=species:S:1:pos:R:3:initial_magmoms:R:1 pbc="T T T"
Si       1.35363384      -1.35529542      -1.35800382       0.00000000
Si       1.36223496       1.35239580       1.35845417       0.00000000
Si      -1.36109303       1.35894438      -1.35713777       0.00000000
Si      -1.37535493      -1.34224713       1.37328098       0.00000000
Si       0.16184115      -2.54617587       2.66290135       0.00000000
Si      -0.04424364       2.59647939       2.70845568       0.00000000
Si       2.71033020       0.00161271      -2.71444876       0.00000000
Si       2.71134018       2.71378368       0.00405312       0.00000000
Si       2.71029762      -2.71547784       0.00003464       0.00000000
Si      -0.00346977      -2.71391400      -2.71472589       0.00000000
