10
Lattice="16.28999089631971 0.0 0.0 0.0 16.28999089631971 0.0 0.0 0.0 34.433804113860816" Properties=species:S:1:pos:R:3:initial_magmoms:R:1 pbc="T T T"
Si      -1.78373056      -1.60316406      -0.54116197       0.00000000
Si      -0.34518510       2.00028168      -1.43327346       0.00000000
Si      -1.20125718       1.50711822       1.62537976       0.00000000
Si       2.57618205      -0.05968656      -0.07065821       0.00000000
Si      -1.07983152      -3.70059930       0.23724904       0.00000000
Si       3.04129413      -0.78247386      -2.36477725       0.00000000
Si       3.23146359       2.30571918       0.40845401       0.00000000
Si      -2.67800595      -1.23417927      -2.70884002       0.00000000
Si       0.25562268       3.05953146       2.68277361       0.00000000
Si      -3.78625931      -1.33830495       0.74903896       0.00000000
