10
Lattice="16.28999089631971 0.0 0.0 0.0 16.28999089631971 0.0 0.0 0.0 34.433804113860816" Properties=species:S:1:pos:R:3:initial_magmoms:R:1 pbc="T T T"
Si      -1.28744757       1.40151015      -1.34235440       0.00000000
Si       1.32914997       1.35829278       1.37924679       0.00000000
Si      -1.38525273      -1.35186149       1.37604445       0.00000000
Si       1.59721821      -1.23190681      -1.56424595       0.00000000
Si      -2.36069793      -0.30377592      -2.65018441       0.00000000
Si       2.67208128      -2.69253882       0.01732021       0.00000000
Si       2.70018153       2.71696023      -0.00046141       0.00000000
Si       2.68514586       0.01039302       2.73948612       0.00000000
Si      -0.02997360      -2.70716839       2.73810877       0.00000000
Si      -0.02863782       2.72660391       2.73631821       0.00000000
