10
Lattice="16.28999089631971 0.0 0.0 0.0 16.28999089631971 0.0 0.0 0.0 34.433804113860816" Properties=species:S:1:pos:R:3:initial_magmoms:R:1 pbc="T T T"
Si       1.35337320      -1.35067779      -1.35538415       0.00000000
Si      -1.35850455      -1.35564624       1.35720915       0.00000000
Si      -1.35527913       1.35530690      -1.36206432       0.00000000
Si       1.35725022       1.35920510       1.35631387       0.00000000
Si      -0.00477297      -2.70074412      -2.71500023       0.00000000
Si       2.70205488       0.01462958      -2.72078855       0.00000000
Si       2.71412577      -2.71258695      -0.00037877       0.00000000
Si      -0.00074934      -2.71336887       2.71462490       0.00000000
Si       2.71432125       0.00214838       2.71465933       0.00000000
Si      -2.71524978       0.00253654       2.71441830       0.00000000
