10
Lattice="16.28999089631971 0.0 0.0 0.0 16.28999089631971 0.0 0.0 0.0 34.433804113860816" Properties=species:S:1:pos:R:3:initial_magmoms:R:1 pbc="T T T"
Si       1.14605037       0.22519622      -2.06420441       0.00000000
Si      -1.74474045       1.21947266      -1.05460471       0.00000000
Si       0.04302189       1.28337996       2.03421255       0.00000000
Si      -0.99639414      -2.18754730      -0.24268959       0.00000000
Si      -2.45441430      -1.54713853       1.48571618       0.00000000
Si      -2.22342210      -0.64384174      -2.47455228       0.00000000
Si      -1.49411880      -0.17462961       3.17104523       0.00000000
Si      -0.73145358       2.97322962      -2.29652941       0.00000000
Si       2.89803987      -1.31977900      -2.23086411       0.00000000
Si      -0.24016347      -0.42610960      -3.94904303       0.00000000
