10
Lattice="16.28999089631971 0.0 0.0 0.0 16.28999089631971 0.0 0.0 0.0 34.433804113860816" Properties=species:S:1:pos:R:3:initial_magmoms:R:1 pbc="T T T"
Si      -1.26833940       1.43682687       1.33545041       0.00000000
Si       1.47628125      -1.29459888       1.31678040       0.00000000
Si      -1.13407722      -1.42905654      -1.57111692       0.00000000
Si       0.79641810       1.63357749      -1.58740412       0.00000000
Si       0.54201717      -0.35425863      -2.97870275       0.00000000
Si      -2.51134785      -2.61004896      -0.02511259       0.00000000
Si      -2.61680931       0.07561818       2.69683294       0.00000000
Si       0.10524969      -2.65326633       2.69648860       0.00000000
Si       2.69842221       2.66157423      -0.17601537       0.00000000
Si       0.10503792       2.78508501       2.69562776       0.00000000
