10
Lattice="16.28999089631971 0.0 0.0 0.0 16.28999089631971 0.0 0.0 0.0 34.433804113860816" Properties=species:S:1:pos:R:3:initial_magmoms:R:1 pbc="T T T"
Si      -1.35576783      -1.35550719      -1.35924074       0.00000000
Si       1.35736425       1.35645201      -1.35776009       0.00000000
Si       1.35752715      -1.35773892       1.35707141       0.00000000
Si      -1.35826020       1.35799956       1.35769122       0.00000000
Si      -0.00094482      -2.71355562       2.71469377       0.00000000
Si       2.71423980      -0.00071676       2.71431499       0.00000000
Si      -2.71474479       0.00034209       2.71410839       0.00000000
Si       2.71485882       2.71467963      -0.00006887       0.00000000
Si      -2.71505430      -2.71518462       0.00000000       0.00000000
Si      -2.71564074       2.71528236      -0.00003443       0.00000000
