10
Lattice="16.28999089631971 0.0 0.0 0.0 16.28999089631971 0.0 0.0 0.0 34.433804113860816" Properties=species:S:1:pos:R:3:initial_magmoms:R:1 pbc="T T T"
Si      -1.35736425      -1.35645201       1.35776009       0.00000000
Si      -1.35555606       1.35808101      -1.35941291       0.00000000
Si       1.35749457       1.35822762       1.35769122       0.00000000
Si       1.36164852      -1.35684297      -1.35793226       0.00000000
Si      -2.71313208      -2.71195920      -0.00148065       0.00000000
Si       2.71373481      -2.71432125      -0.00065424       0.00000000
Si       0.00016290      -2.71419093       2.71483150       0.00000000
Si       2.71453302       0.00130320       2.71510697       0.00000000
Si       2.71453302       2.71621089       0.00020660       0.00000000
Si      -2.71562445       0.00154755       2.71545131       0.00000000
