10
Lattice="16.28999089631971 0.0 0.0 0.0 16.28999089631971 0.0 0.0 0.0 34.433804113860816" Properties=species:S:1:pos:R:3:initial_magmoms:R:1 pbc="T T T"
Si       0.50503887       1.10177415      -2.04616109       0.00000000
Si      -2.07456408      -1.15657371       0.33084017       0.00000000
Si      -0.35891757       2.10357657       1.09475455       0.00000000
Si       1.75355334      -1.60738317       0.31255581       0.00000000
Si      -1.64401938       1.80411750      -2.52341388       0.00000000
Si      -2.11043466       2.83362921      -0.44061520       0.00000000
Si      -1.63694952      -3.30476859      -0.49288575       0.00000000
Si       1.62142515       3.27661947       0.75978231       0.00000000
Si       3.65264154      -0.25824537       0.73309610       0.00000000
Si      -2.81869128      -0.93027303       2.57020944       0.00000000
