10
Lattice="16.28999089631971 0.0 0.0 0.0 16.28999089631971 0.0 0.0 0.0 34.433804113860816" Properties=species:S:1:pos:R:3:initial_magmoms:R:1 pbc="T T T"
Si      -1.56048426       0.59639319       1.65767869       0.00000000
Si       1.64721222       1.69569126       0.31823740       0.00000000
Si       1.39719330      -1.93908015      -0.02041926       0.00000000
Si      -1.45130868      -0.69774957      -1.88494192       0.00000000
Si       1.83536172      -1.38349341      -2.32214818       0.00000000
Si       1.52225163       1.55131299       2.70863341       0.00000000
Si      -2.82253572      -1.40468670       1.73071283       0.00000000
Si      -0.47198646       0.74528379       3.73689625       0.00000000
Si      -2.52415179       2.75294484       0.93969904       0.00000000
Si       2.93715216       0.75663792      -2.59451972       0.00000000
