10
Lattice="16.28999089631971 0.0 0.0 0.0 16.28999089631971 0.0 0.0 0.0 34.433804113860816" Properties=species:S:1:pos:R:3:initial_magmoms:R:1 pbc="T T T"
Si       1.35850455       1.35564624      -1.35720915       0.00000000
Si      -1.35674523       1.35818278       1.35720915       0.00000000
Si       1.35775521      -1.35772263       1.35741575       0.00000000
Si      -1.35847197      -1.36014984      -1.35600396       0.00000000
Si       2.71187775       0.00496845      -2.71259330       0.00000000
Si      -0.00174303      -2.71292031      -2.71214566       0.00000000
Si       0.00221544       2.71358073       2.71314424       0.00000000
Si      -2.71305552       0.00307881      -2.71496924       0.00000000
Si      -2.71428867       2.71439523      -0.00024104       0.00000000
Si      -2.71446786      -2.71510317       0.00044764       0.00000000
