10
Lattice="16.28999089631971 0.0 0.0 0.0 16.28999089631971 0.0 0.0 0.0 34.433804113860816" Properties=species:S:1:pos:R:3:initial_magmoms:R:1 pbc="T T T"
Si       1.85505633      -0.79521264       1.18156221       0.00000000
Si       1.35423657       1.34920296      -1.36633411       0.00000000
Si      -1.35094599      -1.37986074      -1.35965395       0.00000000
Si      -1.42837236       1.31616684       1.41760607       0.00000000
Si       1.24550082      -0.90095103       3.39944478       0.00000000
Si       2.71143792       2.68430760      -0.00089528       0.00000000
Si       0.00625536       2.69637849      -2.72016874       0.00000000
Si      -2.72629929       2.69291849       0.00358112       0.00000000
Si      -2.70987897      -0.01457955      -2.71731074       0.00000000
Si      -2.69415749      -2.73807207       0.00946930       0.00000000
