10
Lattice="16.28999089631971 0.0 0.0 0.0 16.28999089631971 0.0 0.0 0.0 34.433804113860816" Properties=species:S:1:pos:R:3:initial_magmoms:R:1 pbc="T T T"
Si       0.45683676      -2.21659659      -0.46409907       0.00000000
Si       1.69942167       1.56521555       0.31321006       0.00000000
Si      -1.14776082       0.91482508      -1.84616944       0.00000000
Si      -1.22530122       0.08845470       2.10449198       0.00000000
Si       0.38729475       3.39270920       1.10174461       0.00000000
Si      -3.09259297       1.65424528      -0.76071203       0.00000000
Si       2.16117801      -2.69430084       1.17298819       0.00000000
Si      -1.73429856      -3.15802827      -0.63595828       0.00000000
Si      -3.40534794       0.63558693       1.37284210       0.00000000
Si      -0.77190165       2.32212225       2.86689127       0.00000000
