10
Lattice="16.28999089631971 0.0 0.0 0.0 16.28999089631971 0.0 0.0 0.0 34.433804113860816" Properties=species:S:1:pos:R:3:initial_magmoms:R:1 pbc="T T T"
Si      -1.24809093      -1.99352947      -0.15557201       0.00000000
Si       1.05889887       0.06641433      -2.12818245       0.00000000
Si      -0.87006519       2.22091344      -0.25060937       0.00000000
Si       0.96337431      -0.71118882       2.17707848       0.00000000
Si      -0.77253696      -0.78517800      -3.47871144       0.00000000
Si       0.43447059      -3.65786153       0.35986789       0.00000000
Si       2.24731953      -2.62192600       1.53960511       0.00000000
Si      -2.54466090      -1.80876178      -2.14312673       0.00000000
Si       3.00361536      -1.32400233      -2.03266303       0.00000000
Si       2.57706171       0.85849929       2.76341763       0.00000000
