10
Lattice="16.28999089631971 0.0 0.0 0.0 16.28999089631971 0.0 0.0 0.0 34.433804113860816" Properties=species:S:1:pos:R:3:initial_magmoms:R:1 pbc="T T T"
Si       1.84052565      -0.18711671      -1.44191635       0.00000000
Si      -1.90179234      -0.66932352      -1.20611353       0.00000000
Si       0.74319867      -1.11475076       1.94213650       0.00000000
Si      -0.55162827       2.26763642       0.37033577       0.00000000
Si       0.79032564       1.11256139      -3.05634616       0.00000000
Si      -1.68666660      -2.95426059      -0.50197628       0.00000000
Si      -0.13276350       2.21115899       2.72068525       0.00000000
Si       0.57428766      -3.58178397      -0.72748339       0.00000000
Si       1.62515556       0.65508932       3.27238397       0.00000000
Si       1.94232186      -2.97848382       1.11723983       0.00000000
