10
Lattice="16.28999089631971 0.0 0.0 0.0 16.28999089631971 0.0 0.0 0.0 34.433804113860816" Properties=species:S:1:pos:R:3:initial_magmoms:R:1 pbc="T T T"
Si      -0.82461609       0.06239070      -2.24122869       0.00000000
Si       0.62833788       1.96915149       1.21907928       0.00000000
Si      -2.02222431      -0.73574599       1.15607572       0.00000000
Si       1.50174252      -1.94803639       0.15332869       0.00000000
Si       1.76911029       0.53004402       2.75676643       0.00000000
Si      -2.43766818       1.66122162      -1.68099039       0.00000000
Si       3.11324706      -0.76487903       1.38746757       0.00000000
Si      -2.44022571      -2.60722169      -0.42666951       0.00000000
Si      -0.94736124      -2.19637800       2.73764188       0.00000000
Si      -1.42690626      -2.22860951      -2.60571071       0.00000000
