10
Lattice="16.28999089631971 0.0 0.0 0.0 16.28999089631971 0.0 0.0 0.0 34.433804113860816" Properties=species:S:1:pos:R:3:initial_magmoms:R:1 pbc="T T T"
Si       1.55294199      -0.28719107       1.72052042       0.00000000
Si       1.15919640       1.07058695      -1.76514665       0.00000000
Si      -1.97354979       0.88595608       0.99172855       0.00000000
Si      -0.45339957      -2.23366755      -0.76239928       0.00000000
Si      -2.63344629      -1.68653532      -1.49404916       0.00000000
Si       0.14740821      -1.17441778       3.35364779       0.00000000
Si       2.47132332      -0.75690671      -2.55368121       0.00000000
Si       1.70911422       1.82209351       2.69530752       0.00000000
Si       0.77190165      -2.32212225      -2.86689127       0.00000000
Si      -1.75093880       0.41092339       3.32961298       0.00000000
