10
Lattice="16.28999089631971 0.0 0.0 0.0 16.28999089631971 0.0 0.0 0.0 34.433804113860816" Properties=species:S:1:pos:R:3:initial_magmoms:R:1 pbc="T T T"
Si      -0.75891526       2.20338540      -0.29950540       0.00000000
Si       1.97354979      -0.88595608      -0.99172855       0.00000000
Si      -1.83325121      -1.18952838      -0.97582012       0.00000000
Si       0.22261099      -0.47503269       2.33788444       0.00000000
Si      -1.90712636      -1.47212730       2.68931604       0.00000000
Si      -0.65989650      -2.57249141      -2.48577771       0.00000000
Si       1.66742811       1.37660274       2.93162685       0.00000000
Si       2.12095800      -2.06037386       2.36191925       0.00000000
Si       3.52649178      -1.17314716       0.72879187       0.00000000
Si      -0.83654037       3.23245728       1.78969797       0.00000000
