10
Lattice="16.28999089631971 0.0 0.0 0.0 16.28999089631971 0.0 0.0 0.0 34.433804113860816" Properties=species:S:1:pos:R:3:initial_magmoms:R:1 pbc="T T T"
Si      -2.16093366      -1.07251731       0.24475562       0.00000000
Si      -0.73503738       2.29563567       0.32519303       0.00000000
Si       1.74360015      -0.69561558       1.60244684       0.00000000
Si      -0.23152977      -0.10213830      -2.52740820       0.00000000
Si      -1.32851466      -2.82993138       1.49618406       0.00000000
Si       1.94181687      -3.08170962      -0.82926977       0.00000000
Si      -3.41563833       0.24692382       1.68932337       0.00000000
Si      -3.11080356       2.25619758       0.49915270       0.00000000
Si       3.75751656       0.43272756       0.87059036       0.00000000
Si      -0.01373247       2.98709730       2.49920690       0.00000000
