10
Lattice="16.28999089631971 0.0 0.0 0.0 16.28999089631971 0.0 0.0 0.0 34.433804113860816" Properties=species:S:1:pos:R:3:initial_magmoms:R:1 pbc="T T T"
Si      -1.05500556       0.26678133      -2.08193783       0.00000000
Si       1.94557986       1.31616684       0.30219123       0.00000000
Si      -1.29293730      -0.38371095       1.95439495       0.00000000
Si       1.44997290      -1.87362693      -0.21397178       0.00000000
Si       3.41550801      -0.51952068       0.03866918       0.00000000
Si       0.26490798      -1.55248587       3.32475781       0.00000000
Si      -0.12675249      -3.68116533       0.06780020       0.00000000
Si       0.19969911      -1.05265980      -3.52650559       0.00000000
Si       1.03211811      -2.81007387      -2.27507714       0.00000000
Si       1.98377991       1.99414035       2.52069361       0.00000000
