10
Lattice="16.28999089631971 0.0 0.0 0.0 16.28999089631971 0.0 0.0 0.0 34.433804113860816" Properties=species:S:1:pos:R:3:initial_magmoms:R:1 pbc="T T T"
Si      -0.41785479      -0.93644694      -2.06110536       0.00000000
Si      -1.44997290       1.87362693       0.21397178       0.00000000
Si       1.96553511       1.35410625       0.25264096       0.00000000
Si      -1.57672539      -1.80753840       0.28177198       0.00000000
Si       0.49560696       3.18979377       0.51616301       0.00000000
Si      -1.15786062      -1.86401583       2.63212146       0.00000000
Si       2.65426002       1.19786886      -1.95484259       0.00000000
Si      -1.25027379       0.82096713      -3.31253381       0.00000000
Si      -1.18506492       0.32114106       3.53872959       0.00000000
Si      -2.50497846       2.14040826      -1.86796605       0.00000000
