10
Lattice="16.28999089631971 0.0 0.0 0.0 16.28999089631971 0.0 0.0 0.0 34.433804113860816" Properties=species:S:1:pos:R:3:initial_magmoms:R:1 pbc="T T T"
Si      -1.08010845       0.64707138       1.96765197       0.00000000
Si       1.04125680       1.85759757      -1.10129697       0.00000000
Si      -1.84114467      -0.93278169      -1.24536809       0.00000000
Si       1.77821640      -1.74464271       0.02038482       0.00000000
Si       2.22967746       0.44680212      -2.61042815       0.00000000
Si      -2.18189889      -1.49305995       2.24002351       0.00000000
Si      -0.51346080      -2.29972446      -2.62674978       0.00000000
Si       1.36945143      -2.31925617       2.42359022       0.00000000
Si      -2.42538552       2.50035210       1.39622267       0.00000000
Si      -0.75847869      -3.27284019       1.71036244       0.00000000
