10
Lattice="16.28999089631971 0.0 0.0 0.0 16.28999089631971 0.0 0.0 0.0 34.433804113860816" Properties=species:S:1:pos:R:3:initial_magmoms:R:1 pbc="T T T"
Si       0.57394557      -2.21658030       0.80705995       0.00000000
Si      -2.12793012      -0.95358402      -0.71322778       0.00000000
Si       0.40876497       0.57461346      -2.40320540       0.00000000
Si       0.05502762       1.80768501       1.92440309       0.00000000
Si       2.58054777      -1.87172100      -0.26279894       0.00000000
Si      -1.36945143       2.31925617      -2.42359022       0.00000000
Si      -3.55135032       0.82619622      -0.18356671       0.00000000
Si       0.07043796       0.18119367       3.65966118       0.00000000
Si      -2.44955988       2.96632755      -0.45593826       0.00000000
Si      -0.69983469      -3.83373747      -0.50882861       0.00000000
