10
Lattice="16.28999089631971 0.0 0.0 0.0 16.28999089631971 0.0 0.0 0.0 34.433804113860816" Properties=species:S:1:pos:R:3:initial_magmoms:R:1 pbc="T T T"
Si       0.51565995      -1.16478387      -1.99457922       0.00000000
Si       1.81284894       1.03593553       1.17973722       0.00000000
Si      -1.68256152       1.66433205      -0.51543990       0.00000000
Si      -1.06399764      -0.86115456       2.04061724       0.00000000
Si      -2.77617438       0.66973307       1.42432067       0.00000000
Si       1.94764869      -2.67590943      -0.63723234       0.00000000
Si       0.52890372       2.94667271       1.81721059       0.00000000
Si      -0.43447059       3.65786153      -0.35986789       0.00000000
Si      -2.10905001      -2.94580215       1.48402892       0.00000000
Si       1.62955386       0.39001438      -3.55388047       0.00000000
