10
Lattice="16.28999089631971 0.0 0.0 0.0 16.28999089631971 0.0 0.0 0.0 34.433804113860816" Properties=species:S:1:pos:R:3:initial_magmoms:R:1 pbc="T T T"
Si       1.11912300       1.14158691      -1.72981755       0.00000000
Si      -2.26095426       0.62752338       0.22550711       0.00000000
Si      -0.35567586      -2.30690835       0.40101631       0.00000000
Si       1.36803420       0.60330015       1.84472322       0.00000000
Si      -0.86297904      -1.97055243       2.65718928       0.00000000
Si      -2.50833420      -0.27251541       2.51694032       0.00000000
Si      -3.30846642      -0.86410305      -1.22849552       0.00000000
Si       0.16891101       2.46703320       2.66961989       0.00000000
Si       1.26623799       3.39466725      -0.71443297       0.00000000
Si      -0.57428766       3.58178397       0.72748339       0.00000000
