10
Lattice="16.28999089631971 0.0 0.0 0.0 16.28999089631971 0.0 0.0 0.0 34.433804113860816" Properties=species:S:1:pos:R:3:initial_magmoms:R:1 pbc="T T T"
Si       0.15938136       0.84488085       2.18217469       0.00000000
Si      -2.11310622      -0.76271409      -0.71760088       0.00000000
Si       0.11790702       1.81113849      -1.53006694       0.00000000
Si       1.42524468      -1.93305285       0.41389456       0.00000000
Si      -2.26973457      -2.50846452       0.80854061       0.00000000
Si       2.48764590       1.25960796       2.17057049       0.00000000
Si      -1.60580304      -1.09907001      -2.97377385       0.00000000
Si      -0.26551071      -3.55742649       0.17592240       0.00000000
Si      -0.13001049      -1.07807220       3.54158760       0.00000000
Si       2.36437947       2.03468616      -2.08572555       0.00000000
