10
Lattice="16.28999089631971 0.0 0.0 0.0 16.28999089631971 0.0 0.0 0.0 34.433804113860816" Properties=species:S:1:pos:R:3:initial_magmoms:R:1 pbc="T T T"
Si      -1.35803245       1.35620766      -1.35751905       0.00000000
Si       1.35898221       1.35601218       1.35789782       0.00000000
Si      -1.35624055      -1.35909099       1.35776009       0.00000000
Si       1.35953281      -1.36018242      -1.36375157       0.00000000
Si      -2.71251337       2.71120986      -0.00010330       0.00000000
Si       0.00175615       2.71360449       2.71472820       0.00000000
Si      -2.71360480      -0.00166158       2.71496924       0.00000000
Si       2.71603858       2.71355562       0.00110188       0.00000000
Si      -2.71422382      -2.71578735       0.00065424       0.00000000
Si       2.71602229      -0.00128691       2.71552018       0.00000000
