10
Lattice="16.28999089631971 0.0 0.0 0.0 16.28999089631971 0.0 0.0 0.0 34.433804113860816" Properties=species:S:1:pos:R:3:initial_magmoms:R:1 pbc="T T T"
Si      -1.35448092       1.35500220       1.35741575       0.00000000
Si       1.34252406       1.34952876      -1.37828953       0.00000000
Si       1.35803245      -1.35620766       1.35751905       0.00000000
Si      -1.34446257      -1.34270325      -1.39007968       0.00000000
Si      -2.71306692      -0.00021177       2.71507254       0.00000000
Si      -2.71428867       2.71498914      -0.00664573       0.00000000
Si       0.00162900       2.71490769       2.71538244       0.00000000
Si       0.00179190      -2.71529865       2.71527914       0.00000000
Si      -2.71497285      -2.71630863      -0.00168726       0.00000000
Si       2.71701466      -0.00019548       2.71541688       0.00000000
