10
Lattice="16.28999089631971 0.0 0.0 0.0 16.28999089631971 0.0 0.0 0.0 34.433804113860816" Properties=species:S:1:pos:R:3:initial_magmoms:R:1 pbc="T T T"
Si       0.68872491      -0.15623739      -2.20748355       0.00000000
Si       1.81734498      -0.85835268       1.17409008       0.00000000
Si      -1.46992815       1.83568752       0.26352205       0.00000000
Si      -1.96553511      -1.35410625      -0.25264096       0.00000000
Si       0.94138281      -0.25736571       3.29786500       0.00000000
Si      -3.41550801       0.51952068      -0.03866918       0.00000000
Si       1.40335092      -2.45335545      -2.37455646       0.00000000
Si       1.77492582      -3.23038845       0.94145516       0.00000000
Si      -1.43172810       2.51366103       2.48202442       0.00000000
Si      -1.27988901       0.44383734       3.57092522       0.00000000
