10
Lattice="16.28999089631971 0.0 0.0 0.0 16.28999089631971 0.0 0.0 0.0 34.433804113860816" Properties=species:S:1:pos:R:3:initial_magmoms:R:1 pbc="T T T"
Si      -1.35318515      -1.33555194      -1.36788363       0.00000000
Si      -1.46778831       1.26563526       1.31833336       0.00000000
Si       1.35962530       1.38113136      -1.36320063       0.00000000
Si       1.40813692      -1.26801360       1.51439955       0.00000000
Si       0.27940282       2.32547895       2.49238900       0.00000000
Si       2.16345535       0.76615128       2.67774627       0.00000000
Si      -2.70494865      -2.67812487      -0.01077779       0.00000000
Si       0.00050010      -2.69301393      -2.72175270       0.00000000
Si       2.73464791      -2.68135029       0.02090133       0.00000000
Si      -2.71021032       0.02164941      -2.72282015       0.00000000
