10
Lattice="16.28999089631971 0.0 0.0 0.0 16.28999089631971 0.0 0.0 0.0 34.433804113860816" Properties=species:S:1:pos:R:3:initial_magmoms:R:1 pbc="T T T"
Si       0.99799056       1.50814449      -1.57861863       0.00000000
Si      -1.54232091      -0.98777673      -1.55995550       0.00000000
Si      -1.29329568       1.47575997       1.51946132       0.00000000
Si       1.62902022      -1.65828942       1.19271877       0.00000000
Si       0.51704460       3.01755960       1.23307521       0.00000000
Si       0.08216676      -2.61418662       2.60905080       0.00000000
Si       2.36451698       2.89072566      -0.26138715       0.00000000
Si      -0.29960568      -2.38878189      -2.99329783       0.00000000
Si       2.43539151       0.32335650      -2.98100496       0.00000000
Si       2.69556236      -2.79726993      -0.49422867       0.00000000
