10
Lattice="16.28999089631971 0.0 0.0 0.0 16.28999089631971 0.0 0.0 0.0 34.433804113860816" Properties=species:S:1:pos:R:3:initial_magmoms:R:1 pbc="T T T"
Si      -1.35648459       1.35751933       1.36313177       0.00000000
Si       1.35959598      -1.35967743       1.36192658       0.00000000
Si      -1.36190916      -1.35951453      -1.36311110       0.00000000
Si       1.36581876       1.35713619      -1.38244914       0.00000000
Si      -2.71401174      -2.71555929       0.00137735       0.00000000
Si       2.71656927       2.71417694       0.00213490       0.00000000
Si      -2.71871955       2.71466727       0.00668016       0.00000000
Si      -2.71446786      -0.00052128       2.71927346       0.00000000
Si       0.00070047       2.71425350       2.72034091       0.00000000
Si       2.71557558      -2.71920825       0.00523394       0.00000000
