10
Lattice="16.28999089631971 0.0 0.0 0.0 16.28999089631971 0.0 0.0 0.0 34.433804113860816" Properties=species:S:1:pos:R:3:initial_magmoms:R:1 pbc="T T T"
Si      -0.51565995       1.16478387       1.99457922       0.00000000
Si       1.11389391       1.55479825      -1.55930126       0.00000000
Si       1.43198874      -1.51112556       1.35734688       0.00000000
Si      -1.44855567      -1.23584085      -1.63195662       0.00000000
Si       3.24232902       0.03067407       1.07096077       0.00000000
Si      -2.19822147       2.82911592       1.47913932       0.00000000
Si       2.42466876       0.06094089      -3.12018647       0.00000000
Si      -2.48981247      -3.09343842      -0.53065965       0.00000000
Si       2.72528442      -2.98688553      -0.16211444       0.00000000
Si       1.29718899       2.20071940       3.17431644       0.00000000
