10
Lattice="16.28999089631971 0.0 0.0 0.0 16.28999089631971 0.0 0.0 0.0 34.433804113860816" Properties=species:S:1:pos:R:3:initial_magmoms:R:1 pbc="T T T"
Si      -0.56433447       1.64240667       1.58120117       0.00000000
Si      -0.58130865      -2.24354025       0.39530029       0.00000000
Si      -1.13656959       0.70475427      -2.00566691       0.00000000
Si       2.41108031      -0.13377348       0.00946930       0.00000000
Si       2.52959984      -1.80116901      -1.56987244       0.00000000
Si       0.61773309      -3.16583118      -1.41695183       0.00000000
Si       0.38911923       3.55152366       0.50214845       0.00000000
Si       0.34964856      -2.61656496       2.58212355       0.00000000
Si      -2.81080692       1.41885900       2.13685978       0.00000000
Si       0.55934973       1.07380422       3.62929055       0.00000000
