10
Lattice="16.28999089631971 0.0 0.0 0.0 16.28999089631971 0.0 0.0 0.0 34.433804113860816" Properties=species:S:1:pos:R:3:initial_magmoms:R:1 pbc="T T T"
Si      -2.09619068       0.14696838      -1.13659164       0.00000000
Si       1.20366810       1.98088029      -0.59556741       0.00000000
Si      -0.60215985      -0.11857491       2.32944815       0.00000000
Si       0.62262009      -2.07146898      -1.06848154       0.00000000
Si      -0.61354656       3.46004487       0.01673484       0.00000000
Si      -3.30586721      -1.82861766      -0.60348719       0.00000000
Si      -0.39066678      -3.82522594       0.17344317       0.00000000
Si       1.02889269      -1.39427739       3.46820912       0.00000000
Si      -3.29509952       2.09438901      -0.24678721       0.00000000
Si       3.36482982       2.19295980       0.36344901       0.00000000
