10
Lattice="16.28999089631971 0.0 0.0 0.0 16.28999089631971 0.0 0.0 0.0 34.433804113860816" Properties=species:S:1:pos:R:3:initial_magmoms:R:1 pbc="T T T"
Si      -1.83010819      -1.36120869       0.60445134       0.00000000
Si       1.63105254      -1.27570248       1.13876097       0.00000000
Si      -0.83616570       2.00368629       0.93821839       0.00000000
Si       0.60215985       0.11857491      -2.32944815       0.00000000
Si      -1.72004481      -2.95613001      -1.10319083       0.00000000
Si       0.73301742      -1.35084825       3.41177209       0.00000000
Si      -1.49403083       0.26554329      -3.46603979       0.00000000
Si      -2.85629579       2.53197099      -0.21731186       0.00000000
Si      -1.50865925      -2.05516269       2.88848127       0.00000000
Si      -1.64303058       1.61896536       3.12579918       0.00000000
