10
Lattice="16.28999089631971 0.0 0.0 0.0 16.28999089631971 0.0 0.0 0.0 34.433804113860816" Properties=species:S:1:pos:R:3:initial_magmoms:R:1 pbc="T T T"
Si      -1.35587900      -1.35786924       1.35727802       0.00000000
Si       1.35684487       1.35700587       1.35741575       0.00000000
Si       1.35722606      -1.35759231      -1.35683038       0.00000000
Si      -1.35815960       1.35751086      -1.35686481       0.00000000
Si       0.00114617      -2.71507059       2.71221453       0.00000000
Si       2.71428242      -0.00004887      -2.71362632       0.00000000
Si      -0.00175615      -2.71360449      -2.71472820       0.00000000
Si      -2.71365050      -0.00070047       2.71527914       0.00000000
Si      -2.71426952      -0.00239463      -2.71483150       0.00000000
Si       2.71426613      -2.71489140       0.00079198       0.00000000
