10
Lattice="16.28999089631971 0.0 0.0 0.0 16.28999089631971 0.0 0.0 0.0 34.433804113860816" Properties=species:S:1:pos:R:3:initial_magmoms:R:1 pbc="T T T"
Si      -1.35842813       1.35392706      -1.35745018       0.00000000
Si       1.35697545       1.35674523       1.35758792       0.00000000
Si      -1.35847700      -1.35809730       1.35734688       0.00000000
Si       1.35997118      -1.35707103      -1.36023932       0.00000000
Si       2.70925722       0.00531054      -2.68633063       0.00000000
Si       2.71297134       2.71169856       0.00113632       0.00000000
Si      -2.71440773       2.71345788      -0.00075754       0.00000000
Si      -0.00052838       2.71384884       2.71472820       0.00000000
Si       2.71429083      -0.00083079       2.71462490       0.00000000
Si       2.71396503      -2.71565703       0.00058537       0.00000000
