10
Lattice="16.28999089631971 0.0 0.0 0.0 16.28999089631971 0.0 0.0 0.0 34.433804113860816" Properties=species:S:1:pos:R:3:initial_magmoms:R:1 pbc="T T T"
Si      -1.35200388       1.35523026       1.36130677       0.00000000
Si      -1.35684487      -1.35700587      -1.35741575       0.00000000
Si       1.35711175      -1.35539316       1.35948178       0.00000000
Si       1.35776336       1.35777150      -1.35700254       0.00000000
Si      -2.71272387      -2.71487511      -0.00013774       0.00000000
Si       0.00038119      -2.71459818      -2.71424613       0.00000000
Si       2.71488326       0.00066789      -2.71428056       0.00000000
Si      -2.71500447       0.00050499      -2.71428056       0.00000000
Si       0.00044797       2.71534752      -2.71403952       0.00000000
Si       2.71577921      -2.71427238      -0.00013774       0.00000000
