10
Lattice="16.28999089631971 0.0 0.0 0.0 16.28999089631971 0.0 0.0 0.0 34.433804113860816" Properties=species:S:1:pos:R:3:initial_magmoms:R:1 pbc="T T T"
Si       0.91934896       0.46646415      -2.10266699       0.00000000
Si      -1.70035087      -1.66843809      -0.56402603       0.00000000
Si       1.99945741      -1.01362896       1.14909112       0.00000000
Si      -0.97127170       2.21672691       0.70041840       0.00000000
Si      -0.69901856       1.01605617       2.95942387       0.00000000
Si       0.99139963      -0.74587023       3.20804544       0.00000000
Si       1.55346979      -3.16853532       0.18370445       0.00000000
Si      -0.18021790      -1.02653064      -3.50808349       0.00000000
Si      -1.78707883       2.82875850      -1.59087707       0.00000000
Si      -2.35535548      -1.03154796      -2.71775838       0.00000000
