10
Lattice="16.28999089631971 0.0 0.0 0.0 16.28999089631971 0.0 0.0 0.0 34.433804113860816" Properties=species:S:1:pos:R:3:initial_magmoms:R:1 pbc="T T T"
Si      -1.29792693       1.37675165      -1.41402496       0.00000000
Si       1.04145228       1.69472105       1.30111645       0.00000000
Si      -1.33665966      -1.48686975       1.31148103       0.00000000
Si       1.42837236      -1.31616684      -1.41760607       0.00000000
Si      -1.79529972       0.54588997       2.74744033       0.00000000
Si       1.58853564      -0.07933230       2.99984026       0.00000000
Si      -2.63990420       0.02438579      -2.77753549       0.00000000
Si      -2.56535800       2.86317017      -0.02513669       0.00000000
Si       0.07742637      -2.69602758      -2.77726002       0.00000000
Si       0.07424982       2.73917069      -2.77316240       0.00000000
