10
Lattice="16.28999089631971 0.0 0.0 0.0 16.28999089631971 0.0 0.0 0.0 34.433804113860816" Properties=species:S:1:pos:R:3:initial_magmoms:R:1 pbc="T T T"
Si       0.19583675      -0.83582361       2.19195389       0.00000000
Si       1.21045940      -1.54580697      -1.30008343       0.00000000
Si      -0.65089627       2.13361533      -0.79686754       0.00000000
Si      -2.03616108      -1.31385366       0.16328519       0.00000000
Si       2.42251685       2.11843305       1.05653300       0.00000000
Si       2.12413292      -2.03919849       1.84754679       0.00000000
Si      -0.48194454      -2.07668178      -2.88407374       0.00000000
Si      -1.71603000      -2.20048578       2.34487450       0.00000000
Si       1.45129076      -3.47926707       0.08790955       0.00000000
Si       3.38618438      -0.03811860       1.77451265       0.00000000
