10
Lattice="16.28999089631971 0.0 0.0 0.0 16.28999089631971 0.0 0.0 0.0 34.64500226677339" Properties=species:S:1:pos:R:3:initial_magmoms:R:1 pbc="T T T"
Si       1.03821057      -1.63396845      -1.35247235       0.00000000
Si      -0.97989726      -1.12744719       1.83573576       0.00000000
Si       1.29207393       1.50820965       1.29478839       0.00000000
Si      -1.70160013       1.41770241      -0.88705113       0.00000000
Si      -1.85404759       0.89783964       2.66354391       0.00000000
Si      -3.57802424       0.07203438      -0.54912359       0.00000000
Si      -2.29991084       2.71991428       1.09706925       0.00000000
Si       0.37427904      -1.20788721      -3.53794961       0.00000000
Si       0.15455952       1.82272068       3.38682802       0.00000000
Si       0.65078550      -1.66850325       3.44627888       0.00000000
