10
Lattice="16.28999089631971 0.0 0.0 0.0 16.28999089631971 0.0 0.0 0.0 34.64500226677339" Properties=species:S:1:pos:R:3:initial_magmoms:R:1 pbc="T T T"
Si       1.35604476       1.35620766       1.35770375       0.00000000
Si      -1.35953082       1.35795069      -1.35718408       0.00000000
Si       1.35293337      -1.36081284      -1.36099503       0.00000000
Si      -1.35883035      -1.35906330       1.35766911       0.00000000
Si      -0.00061902       2.71345788       2.71492247       0.00000000
Si       2.71375110      -0.00166158       2.71481854       0.00000000
Si      -2.71497285       2.71366965      -0.00003465       0.00000000
Si       2.71538010       2.71410948       0.00097006       0.00000000
Si      -2.71463076      -2.71538729       0.00103935       0.00000000
Si      -2.71590138      -0.00203625       2.71485318       0.00000000
