10
Lattice="16.28999089631971 0.0 0.0 0.0 16.28999089631971 0.0 0.0 0.0 34.64500226677339" Properties=species:S:1:pos:R:3:initial_magmoms:R:1 pbc="T T T"
Si      -1.35580041      -1.35632399      -1.35662976       0.00000000
Si      -1.35707103       1.35702705       1.35718408       0.00000000
Si       1.35788553      -1.35776450       1.35714943       0.00000000
Si       1.35883035       1.35906330      -1.35766911       0.00000000
Si      -2.71189404       0.00128202       2.71353667       0.00000000
Si       0.00026064      -2.71207553       2.71429886       0.00000000
Si      -2.71182888       0.00012869      -2.71551144       0.00000000
Si      -2.71414206       2.71414695      -0.00027716       0.00000000
Si      -2.71419093      -2.71561046      -0.00013858       0.00000000
Si       2.71487511       2.71527096       0.00003465       0.00000000
