10
Lattice="16.28999089631971 0.0 0.0 0.0 16.28999089631971 0.0 0.0 0.0 34.64500226677339" Properties=species:S:1:pos:R:3:initial_magmoms:R:1 pbc="T T T"
Si       0.75020337       2.25527719       0.58577803       0.00000000
Si      -1.18780164      -1.08677010       1.84948983       0.00000000
Si       2.12162589      -1.32476700       0.26371790       0.00000000
Si      -1.82382840       0.83930152      -1.95321703       0.00000000
Si       0.23866479       1.79703950       2.90727163       0.00000000
Si       1.69287309      -2.62630542      -1.89050954       0.00000000
Si      -1.93666923       0.89371012       2.99589360       0.00000000
Si      -3.18453210      -1.97905485       0.62794102       0.00000000
Si       3.10472739       2.18174413       0.29652674       0.00000000
Si       1.51982442       2.78087405      -2.12813974       0.00000000
