10
Lattice="16.28999089631971 0.0 0.0 0.0 16.28999089631971 0.0 0.0 0.0 34.64500226677339" Properties=species:S:1:pos:R:3:initial_magmoms:R:1 pbc="T T T"
Si       1.35629400       1.35624024      -1.35850059       0.00000000
Si      -1.35977060       1.35672894       1.35794627       0.00000000
Si      -1.35846586      -1.35860229      -1.35905491       0.00000000
Si       1.35715737      -1.36163223       1.35867381       0.00000000
Si      -2.71329728      -2.71440433      -0.00200941       0.00000000
Si      -2.70099833       0.00265527       2.72867655       0.00000000
Si      -0.00145633       2.71422351      -2.71630828       0.00000000
Si       2.71437501      -0.00166158      -2.71627363       0.00000000
Si       2.71626465       2.71476108      -0.00148974       0.00000000
Si       2.71662303      -2.71452650      -0.00245980       0.00000000
