10
Lattice="16.28999089631971 0.0 0.0 0.0 16.28999089631971 0.0 0.0 0.0 34.64500226677339" Properties=species:S:1:pos:R:3:initial_magmoms:R:1 pbc="T T T"
Si       1.35544203      -1.35571896      -1.35714943       0.00000000
Si       1.35702216       1.35668007       1.35690692       0.00000000
Si      -1.35799956      -1.35858600       1.35742659       0.00000000
Si      -1.36042677       1.35816246      -1.36324696       0.00000000
Si       2.71497285      -2.71366965       0.00003465       0.00000000
Si      -0.00066789       2.71393029       2.71492247       0.00000000
Si       2.71435383      -0.00021177       2.71495712       0.00000000
Si      -2.71538010      -2.71453302      -0.00003465       0.00000000
Si      -0.00092853      -2.71570590       2.71488783       0.00000000
Si      -2.71608057      -0.00068418       2.71519964       0.00000000
