10
Lattice="16.28999089631971 0.0 0.0 0.0 16.28999089631971 0.0 0.0 0.0 34.64500226677339" Properties=species:S:1:pos:R:3:initial_magmoms:R:1 pbc="T T T"
Si      -1.34516304      -1.33424874       1.38351429       0.00000000
Si      -1.35207000       1.35899325      -1.35773840       0.00000000
Si       1.36117611      -1.35454608      -1.35798091       0.00000000
Si       1.34719929       1.36317978       1.37703567       0.00000000
Si      -2.71213839       2.70945054       0.00460779       0.00000000
Si      -2.71204065       0.00047241      -2.71474925       0.00000000
Si      -2.71117728      -2.71740006       0.00242515       0.00000000
Si       0.00311139      -2.71454931      -2.71506105       0.00000000
Si       0.00337203       2.71508688      -2.71502641       0.00000000
Si       2.71736748      -2.71378368       0.00630539       0.00000000
