10
Lattice="16.28999089631971 0.0 0.0 0.0 16.28999089631971 0.0 0.0 0.0 34.64500226677339" Properties=species:S:1:pos:R:3:initial_magmoms:R:1 pbc="T T T"
Si       1.50488649      -1.86093702      -0.30078808       0.00000000
Si      -2.29043916       0.00804726      -0.77667209       0.00000000
Si      -0.72361809      -0.63376245       2.23242126       0.00000000
Si      -0.63096057       2.35801008      -0.76562033       0.00000000
Si       1.64167362       2.85852033      -0.27016188       0.00000000
Si      -2.78697465       1.82131974       0.80404166       0.00000000
Si       2.66980068      -0.79247592      -2.02458577       0.00000000
Si       3.29929515       0.96246207      -0.52016035       0.00000000
Si       1.02200202       0.20386935      -3.38003760       0.00000000
Si      -1.75127274       1.38249972       2.83129510       0.00000000
