10
Lattice="16.28999089631971 0.0 0.0 0.0 16.28999089631971 0.0 0.0 0.0 34.64500226677339" Properties=species:S:1:pos:R:3:initial_magmoms:R:1 pbc="T T T"
Si       1.59881463       0.68440806      -1.54128772       0.00000000
Si       1.56124989      -0.83898387       1.56356447       0.00000000
Si      -0.91282644      -2.12911929      -0.49209789       0.00000000
Si      -1.61617977       1.72499697       0.27667514       0.00000000
Si       0.04122999      -1.78158843       3.06168450       0.00000000
Si       0.82881891      -2.87885025      -2.00601604       0.00000000
Si       2.62646928      -1.33185411      -2.14016157       0.00000000
Si       2.32176483       1.02214863       2.75420993       0.00000000
Si       0.56311272       1.12322808      -3.56854116       0.00000000
Si      -1.18824147      -3.19034763       1.66309962       0.00000000
