10
Lattice="16.28999089631971 0.0 0.0 0.0 16.28999089631971 0.0 0.0 0.0 34.64500226677339" Properties=species:S:1:pos:R:3:initial_magmoms:R:1 pbc="T T T"
Si       1.48874310       0.07503174       1.87433032       0.00000000
Si      -1.71717777       1.53898146       0.71285597       0.00000000
Si       1.42666191       1.16968716      -1.62055553       0.00000000
Si      -0.81634077      -2.35978569      -0.10760744       0.00000000
Si      -0.65195838       1.04611122      -2.99087007       0.00000000
Si       2.57606802      -2.09093553       1.68960306       0.00000000
Si       0.52510815      -3.37367529       1.62668770       0.00000000
Si      -2.44960875      -0.50088492      -2.85672455       0.00000000
Si       3.08175849       1.80595827       1.56713291       0.00000000
Si       0.30525831       0.59352615       3.88315260       0.00000000
