10
Lattice="16.28999089631971 0.0 0.0 0.0 16.28999089631971 0.0 0.0 0.0 34.64500226677339" Properties=species:S:1:pos:R:3:initial_magmoms:R:1 pbc="T T T"
Si       1.22802165      -1.44879629      -1.42009944       0.00000000
Si      -0.73839312      -1.77159893       1.44241083       0.00000000
Si       1.01599101       1.66286153       1.40849335       0.00000000
Si      -1.50571891       1.25136310      -1.42702844       0.00000000
Si       2.58431076       2.63302877      -0.02948291       0.00000000
Si       2.55871917      -0.09843210      -2.80059961       0.00000000
Si      -2.68735153      -2.71615829       0.04971561       0.00000000
Si      -0.15657948       2.61525638      -2.79637292       0.00000000
Si      -2.64916614       2.77287842      -0.07642692       0.00000000
Si       2.65650804      -2.77429730       0.06315787       0.00000000
