10
Lattice="16.28999089631971 0.0 0.0 0.0 16.28999089631971 0.0 0.0 0.0 34.64500226677339" Properties=species:S:1:pos:R:3:initial_magmoms:R:1 pbc="T T T"
Si      -1.40089113       1.03448016      -1.58369323       0.00000000
Si       2.14156485       1.03162941       0.08848339       0.00000000
Si      -1.31748633       0.55796508       1.93267253       0.00000000
Si       0.77913441      -2.23544412      -0.46562909       0.00000000
Si       1.94494455      -2.30816268       1.54270817       0.00000000
Si       0.11912877       1.97708472      -3.08181325       0.00000000
Si       3.24967581      -0.31516263       1.66368858       0.00000000
Si      -1.17371079      -3.35306844      -1.10399826       0.00000000
Si       1.72398699       3.36004056       0.30560374       0.00000000
Si      -1.92935502       2.86368426       1.58511367       0.00000000
