10
Lattice="16.28999089631971 0.0 0.0 0.0 16.28999089631971 0.0 0.0 0.0 34.64500226677339" Properties=species:S:1:pos:R:3:initial_magmoms:R:1 pbc="T T T"
Si       1.35606105       1.33778367      -1.37831754       0.00000000
Si      -1.35782037      -1.38510612      -1.37329401       0.00000000
Si       1.48968792      -1.18278432       1.42980004       0.00000000
Si      -1.29823155       1.47883878       1.40447453       0.00000000
Si       2.70875007       2.68799661       0.00218264       0.00000000
Si      -2.71470081       2.69627193      -0.01108641       0.00000000
Si       0.00158013       2.69404020      -2.73574413       0.00000000
Si       2.70151731      -2.73137688      -0.00086613       0.00000000
Si      -2.70271137      -2.73738789       0.01784219       0.00000000
Si      -2.71368757      -0.01933623      -2.73491265       0.00000000
