10
Lattice="16.28999089631971 0.0 0.0 0.0 16.28999089631971 0.0 0.0 0.0 34.64500226677339" Properties=species:S:1:pos:R:3:initial_magmoms:R:1 pbc="T T T"
Si      -1.03570191       0.43882002      -2.02725344       0.00000000
Si      -1.59881463      -0.68440806       1.54128772       0.00000000
Si       1.02765465      -2.01626217      -0.59887384       0.00000000
Si       2.17328148       0.55589625       0.78391290       0.00000000
Si      -0.03756474      -1.52339193       3.10485219       0.00000000
Si       1.75127274      -1.38249972      -2.83129510       0.00000000
Si      -0.76999572      -3.56325831      -0.46472832       0.00000000
Si      -0.74158596       2.75455755      -2.38420110       0.00000000
Si       3.10627494      -1.89268623       0.77144070       0.00000000
Si      -3.21499440       1.04058891       1.81796286       0.00000000
