10
Lattice="16.28999089631971 0.0 0.0 0.0 16.28999089631971 0.0 0.0 0.0 34.64500226677339" Properties=species:S:1:pos:R:3:initial_magmoms:R:1 pbc="T T T"
Si       1.56831975       0.97016724      -1.43797627       0.00000000
Si      -1.01599101      -1.66286153      -1.40849335       0.00000000
Si      -1.80108756       1.92331143       0.16861732       0.00000000
Si       1.82382840      -0.83930152       1.95321703       0.00000000
Si       0.19344375       2.33554617      -2.82377713       0.00000000
Si      -2.52170992      -0.41149843      -2.83552180       0.00000000
Si      -1.75438413      -3.43446047       0.03391748       0.00000000
Si       3.34365282       1.94157252      -0.17492271       0.00000000
Si       2.57403177       1.41597567       2.53899506       0.00000000
Si      -3.01698456       0.01270620       2.44940303       0.00000000
