10
Lattice="16.28999089631971 0.0 0.0 0.0 16.28999089631971 0.0 0.0 0.0 34.64500226677339" Properties=species:S:1:pos:R:3:initial_magmoms:R:1 pbc="T T T"
Si       1.03570191      -0.43882002       2.02725344       0.00000000
Si       0.29411595       2.31573753      -0.35694766       0.00000000
Si      -2.37271995      -0.05082480       0.14173278       0.00000000
Si       0.49653549      -1.81327248      -1.58071376       0.00000000
Si       2.15601408       0.53669034      -1.56966199       0.00000000
Si      -2.22778782       0.29304081      -2.32859584       0.00000000
Si       2.78697465      -1.82131974      -0.80404166       0.00000000
Si       2.06335656      -2.45508219       1.42837960       0.00000000
Si      -1.54059417       2.61221553      -1.90914856       0.00000000
Si      -0.56311272      -1.12322808       3.56854116       0.00000000
