10
Lattice="16.28999089631971 0.0 0.0 0.0 16.28999089631971 0.0 0.0 0.0 34.64500226677339" Properties=species:S:1:pos:R:3:initial_magmoms:R:1 pbc="T T T"
Si       2.27263419       0.50051025       0.49545845       0.00000000
Si      -0.24205311      -0.14199993      -2.39424815       0.00000000
Si       0.63096057      -2.35801008       0.76562033       0.00000000
Si      -2.15601408      -0.53669034       1.56966199       0.00000000
Si      -0.15897411       2.71526607      -0.13695177       0.00000000
Si      -1.86189813       1.77904719       1.21271434       0.00000000
Si      -1.65947859      -2.34996282      -0.01105176       0.00000000
Si       1.65296259      -2.15414073      -2.61441727       0.00000000
Si       2.29767192       0.97055820       2.89836786       0.00000000
Si      -1.12031217      -0.97551036       3.59691544       0.00000000
