10
Lattice="16.28999089631971 0.0 0.0 0.0 16.28999089631971 0.0 0.0 0.0 34.64500226677339" Properties=species:S:1:pos:R:3:initial_magmoms:R:1 pbc="T T T"
Si      -2.01822904       0.69165711      -0.87603402       0.00000000
Si       1.05664596       1.35202113       1.55150800       0.00000000
Si      -0.43940646      -2.07587447       0.96236941       0.00000000
Si       1.21589700       1.91060523      -2.28078571       0.00000000
Si       1.65628086      -2.83106258       0.13175502       0.00000000
Si      -1.92112435      -0.45751279      -2.84574208       0.00000000
Si       1.78407591       3.25231479       0.25044886       0.00000000
Si       2.90414373       0.04170240       2.49970760       0.00000000
Si       3.01698456      -0.01270620      -2.44940303       0.00000000
Si      -0.25132049       2.04260310       3.46304707       0.00000000
