10
Lattice="16.28999089631971 0.0 0.0 0.0 16.28999089631971 0.0 0.0 0.0 34.64500226677339" Properties=species:S:1:pos:R:3:initial_magmoms:R:1 pbc="T T T"
Si       1.48693491      -1.80053370      -0.57926476       0.00000000
Si       0.87190596       2.09552931      -0.87340100       0.00000000
Si      -0.24386130       0.24283503       2.44039532       0.00000000
Si      -2.06910693      -0.21589137      -1.43859988       0.00000000
Si       0.37033686      -3.70701756       0.49722535       0.00000000
Si      -1.96647993       1.95724350       2.63718151       0.00000000
Si       1.03094523      -2.02429314      -3.08333763       0.00000000
Si      -1.61834634       0.77146182      -3.55447528       0.00000000
Si      -2.63596635      -2.51291169      -1.83417674       0.00000000
Si      -4.09247968       0.57912579      -0.21486842       0.00000000
