10
Lattice="16.28999089631971 0.0 0.0 0.0 16.28999089631971 0.0 0.0 0.0 34.64500226677339" Properties=species:S:1:pos:R:3:initial_magmoms:R:1 pbc="T T T"
Si      -0.91647540      -1.76112819      -1.19663454       0.00000000
Si      -1.41239187       1.25789825       1.41730358       0.00000000
Si       1.32203124      -1.43218422       1.39527281       0.00000000
Si       1.08844893       1.49001928      -1.53148114       0.00000000
Si       2.69897607       2.70142024      -0.12727888       0.00000000
Si      -0.05551632       2.62229971       2.77882522       0.00000000
Si       0.80614323      -3.47553666      -1.39342073       0.00000000
Si       2.65461840      -0.09845676       2.77875593       0.00000000
Si      -2.77697911       2.66150160       0.12533183       0.00000000
Si      -0.75372201       2.63532519      -2.71578656       0.00000000
