10
Lattice="16.28999089631971 0.0 0.0 0.0 16.28999089631971 0.0 0.0 0.0 34.64500226677339" Properties=species:S:1:pos:R:3:initial_magmoms:R:1 pbc="T T T"
Si       1.33258716       1.33372746       1.38348311       0.00000000
Si      -1.38078927      -1.37969784       1.38161228       0.00000000
Si      -1.32203124       1.43218422      -1.39527281       0.00000000
Si       1.51474194      -1.20593241      -1.50843731       0.00000000
Si      -2.23850664      -0.32894397      -2.59190736       0.00000000
Si      -0.51588801      -2.04335244      -2.78869355       0.00000000
Si       2.69734707       2.70867336      -0.01106562       0.00000000
Si      -2.73442311       2.69008247       0.02203077       0.00000000
Si       2.68850160      -2.73654081      -0.00979415       0.00000000
Si       2.69361666      -0.01655064       2.74160261       0.00000000
