10
Lattice="16.28999089631971 0.0 0.0 0.0 16.28999089631971 0.0 0.0 0.0 34.64500226677339" Properties=species:S:1:pos:R:3:initial_magmoms:R:1 pbc="T T T"
Si       1.61538156       1.13637411       1.24884078       0.00000000
Si      -1.12777951      -1.53759518       1.35099856       0.00000000
Si       0.89547759      -1.56377158      -1.49011984       0.00000000
Si      -0.15037299       2.22032700      -1.92193539       0.00000000
Si       0.92628198       0.38289645      -3.00071207       0.00000000
Si       0.23618871       2.51592534       2.61594026       0.00000000
Si      -2.48069368      -0.20031813       2.65765287       0.00000000
Si      -1.13364065      -2.94872525      -1.82337030       0.00000000
Si      -2.74338980      -2.45925732      -0.08474453       0.00000000
Si       2.73764853      -2.70907750      -0.30581442       0.00000000
