10
Lattice="16.28999089631971 0.0 0.0 0.0 16.28999089631971 0.0 0.0 0.0 34.64500226677339" Properties=species:S:1:pos:R:3:initial_magmoms:R:1 pbc="T T T"
Si      -1.49630166      -1.38948813       1.08671039       0.00000000
Si       2.04296148      -0.23842044       1.15101155       0.00000000
Si      -0.37884024      -0.03862359      -2.38617586       0.00000000
Si      -0.30247272       2.34988137       0.49899225       0.00000000
Si       2.93969340       1.83852198       0.32559391       0.00000000
Si       1.33636644       3.07382526      -1.00512137       0.00000000
Si       0.45867753       2.06632134      -2.95466602       0.00000000
Si      -3.08408796      -0.05134608       2.14442290       0.00000000
Si      -2.69666289      -0.01681128      -2.65432833       0.00000000
Si       2.85177627      -2.47981041       0.85746429       0.00000000
