10
Lattice="16.28999089631971 0.0 0.0 0.0 16.28999089631971 0.0 0.0 0.0 34.64500226677339" Properties=species:S:1:pos:R:3:initial_magmoms:R:1 pbc="T T T"
Si      -1.42392519       1.27546041      -1.45259647       0.00000000
Si       1.31113323      -1.40551914      -1.45775858       0.00000000
Si      -0.80146800      -1.77553020       1.43984710       0.00000000
Si       0.88314606       1.96019753       1.35721872       0.00000000
Si      -0.37271520      -0.47399178       3.59407454       0.00000000
Si       2.79026523      -2.54329419       0.03024510       0.00000000
Si      -2.74984974       2.66024399      -0.06083666       0.00000000
Si      -2.67765246      -2.74708209       0.03180413       0.00000000
Si       0.97684614      -3.52092225       1.22224172       0.00000000
Si      -0.06219522       2.64608798      -2.82384642       0.00000000
