10
Lattice="16.28999089631971 0.0 0.0 0.0 16.28999089631971 0.0 0.0 0.0 34.64500226677339" Properties=species:S:1:pos:R:3:initial_magmoms:R:1 pbc="T T T"
Si       1.88825535       0.90049491      -1.33920331       0.00000000
Si      -1.85766273       1.67145174      -0.15500183       0.00000000
Si      -0.27275976       1.07232183       2.26966466       0.00000000
Si      -0.88314606      -1.96019753      -1.35721872       0.00000000
Si       0.56770650      -0.89100761       3.27866627       0.00000000
Si       0.42318162       2.06114112      -2.80905300       0.00000000
Si      -1.25586126      -2.43418931       2.23685582       0.00000000
Si       2.63746503      -1.57750242       1.99569183       0.00000000
Si      -2.30707125      -0.68473712      -2.80981519       0.00000000
Si      -2.62728378       1.14585489       2.55891594       0.00000000
