10
Lattice="16.28999089631971 0.0 0.0 0.0 16.28999089631971 0.0 0.0 0.0 34.64500226677339" Properties=species:S:1:pos:R:3:initial_magmoms:R:1 pbc="T T T"
Si      -1.46507373       1.16064621      -1.46984969       0.00000000
Si       1.23116562      -1.55436248      -1.47040401       0.00000000
Si      -1.88825535      -0.90049491       1.33920331       0.00000000
Si       1.15364151       1.77150492       1.30535512       0.00000000
Si      -0.12354336       2.50066161      -2.84768220       0.00000000
Si      -2.81020419       2.57582367      -0.05702571       0.00000000
Si       2.76038937       2.66089005      -0.10687989       0.00000000
Si       2.59652826      -0.21668958      -2.84432163       0.00000000
Si       2.61746091      -2.88552394      -0.09828793       0.00000000
Si      -2.77140141      -2.86069244      -0.01801541       0.00000000
