10
Lattice="16.28999089631971 0.0 0.0 0.0 16.28999089631971 0.0 0.0 0.0 34.64500226677339" Properties=species:S:1:pos:R:3:initial_magmoms:R:1 pbc="T T T"
Si      -1.39356063       1.28653533      -1.41410585       0.00000000
Si       0.94237650       1.81964187       1.19199661       0.00000000
Si      -0.93571389      -1.80486684       1.24122719       0.00000000
Si       1.34513046      -1.41517746      -1.41282398       0.00000000
Si       2.59017516       0.82329660       2.54744844       0.00000000
Si       2.81020419      -2.57582367       0.05702571       0.00000000
Si      -0.02062314       2.63577087      -2.78722664       0.00000000
Si      -2.60539002       2.83512789       0.01656032       0.00000000
Si       0.92194884      -3.47631858       1.39622902       0.00000000
Si       2.68666083      -0.07516206      -2.79065649       0.00000000
