10
Lattice="16.28999089631971 0.0 0.0 0.0 16.28999089631971 0.0 0.0 0.0 34.64500226677339" Properties=species:S:1:pos:R:3:initial_magmoms:R:1 pbc="T T T"
Si       1.59301539       1.73092653      -0.30719741       0.00000000
Si      -1.18348479       0.51849441       2.00882229       0.00000000
Si      -1.48874310      -0.07503174      -1.87433032       0.00000000
Si       1.08732492      -2.16596727      -0.18472726       0.00000000
Si      -0.96363495      -3.44870703      -0.24764261       0.00000000
Si      -0.06208119       1.09465542      -3.49488585       0.00000000
Si       2.28564990       1.35342207      -2.53293218       0.00000000
Si      -0.07537383      -0.82829763       3.58402749       0.00000000
Si      -3.20592087       1.46394972      -1.16147435       0.00000000
Si      -3.32504964      -0.51313500       1.92033890       0.00000000
