10
Lattice="16.28999089631971 0.0 0.0 0.0 16.28999089631971 0.0 0.0 0.0 34.64500226677339" Properties=species:S:1:pos:R:3:initial_magmoms:R:1 pbc="T T T"
Si       1.34066700       1.33674111       1.37334252       0.00000000
Si      -1.37678193      -1.37857383       1.37420864       0.00000000
Si       1.46533437      -1.28366829      -1.38358358       0.00000000
Si      -1.28360313       1.40569668      -1.46952749       0.00000000
Si      -2.00477772      -0.40159737      -2.90654552       0.00000000
Si      -0.10782351      -2.23629120      -2.92937658       0.00000000
Si       2.71256193       2.69957880      -0.03930131       0.00000000
Si      -2.73292443       2.69200395      -0.01695527       0.00000000
Si      -0.01215234       2.69707014       2.73530761       0.00000000
Si       2.70184311      -0.01816335       2.73579264       0.00000000
