10
Lattice="16.28999089631971 0.0 0.0 0.0 16.28999089631971 0.0 0.0 0.0 34.64500226677339" Properties=species:S:1:pos:R:3:initial_magmoms:R:1 pbc="T T T"
Si      -1.35550719      -1.35614250      -1.35704550       0.00000000
Si      -1.35723393       1.35772263       1.35763446       0.00000000
Si       1.35742941      -1.35770634       1.35794627       0.00000000
Si       1.35961227       1.35928647      -1.35611008       0.00000000
Si       0.00307881      -2.71288773       2.71412564       0.00000000
Si       2.71466334      -2.71472850       0.00027716       0.00000000
Si      -2.71489140       2.71507059       0.00000000       0.00000000
Si      -2.71450044      -2.71546155      -0.00031181       0.00000000
Si       2.71443528       2.71554300       0.00048503       0.00000000
Si      -2.71484253       0.00158013       2.71533822       0.00000000
