10
Lattice="16.28999089631971 0.0 0.0 0.0 16.28999089631971 0.0 0.0 0.0 34.64500226677339" Properties=species:S:1:pos:R:3:initial_magmoms:R:1 pbc="T T T"
Si       1.35482301       1.35625653       1.35659511       0.00000000
Si      -1.35961227      -1.35928647       1.35611008       0.00000000
Si       1.35281934      -1.36032903      -1.36196509       0.00000000
Si      -1.35812988       1.35570267      -1.36421702       0.00000000
Si       2.71300176      -0.00185706       2.71377919       0.00000000
Si      -0.00218286       2.71329498       2.71391777       0.00000000
Si       2.71399545      -2.71523349       0.00048503       0.00000000
Si       2.71366965       2.71661814      -0.00062361       0.00000000
Si      -2.71511946      -2.71542897      -0.00093542       0.00000000
Si      -2.71565703       2.71492398      -0.00086613       0.00000000
