10
Lattice="16.28999089631971 0.0 0.0 0.0 16.28999089631971 0.0 0.0 0.0 34.64500226677339" Properties=species:S:1:pos:R:3:initial_magmoms:R:1 pbc="T T T"
Si       1.58829129       0.70693713       1.58965217       0.00000000
Si       0.83877210      -2.07964656      -0.75962674       0.00000000
Si      -0.60823602       1.98531117      -1.24590427       0.00000000
Si      -1.66353480      -1.37898108       1.32946806       0.00000000
Si       1.18174176      -1.10258865      -2.85232463       0.00000000
Si       1.66566879       2.75188599      -1.43378422       0.00000000
Si      -0.66583746      -3.44162088       0.36172867       0.00000000
Si      -0.09386298       0.92823678       3.53749922       0.00000000
Si       3.23022555       1.95975216       0.18971614       0.00000000
Si      -0.92105289      -0.73756233      -3.73705455       0.00000000
