10
Lattice="16.28999089631971 0.0 0.0 0.0 16.28999089631971 0.0 0.0 0.0 34.64500226677339" Properties=species:S:1:pos:R:3:initial_magmoms:R:1 pbc="T T T"
Si       1.35812988      -1.35570267       1.36421702       0.00000000
Si      -1.35752715       1.35922131       1.36335089       0.00000000
Si       1.36542780       1.37015190      -1.35963348       0.00000000
Si      -1.36264221      -1.36076886      -1.38804586       0.00000000
Si       2.71148679       2.71313208       0.00502353       0.00000000
Si       2.71094922      -2.71603170       0.00225193       0.00000000
Si      -2.71855665       2.70949941       0.00523140       0.00000000
Si      -2.71746522      -2.71472850      -0.00041574       0.00000000
Si       2.71295289       0.00055386       2.72081213       0.00000000
Si      -0.00117288       2.71432125       2.72056961       0.00000000
