10
Lattice="16.28999089631971 0.0 0.0 0.0 16.28999089631971 0.0 0.0 0.0 34.64500226677339" Properties=species:S:1:pos:R:3:initial_magmoms:R:1 pbc="T T T"
Si      -1.74641832      -0.18148689       1.64044177       0.00000000
Si       0.80269857       2.27227581       0.04846839       0.00000000
Si      -0.37799316      -0.75906024      -2.25643026       0.00000000
Si       1.66577046      -1.50883193       0.95010507       0.00000000
Si       3.21149924       1.78584012      -0.24151045       0.00000000
Si      -1.06505649      -3.00047858      -1.90921785       0.00000000
Si       1.76072813      -0.42800346      -3.28109142       0.00000000
Si      -0.39921903       3.39806142      -1.73658171       0.00000000
Si      -2.64582180      -2.37295520       1.62211456       0.00000000
Si       3.53892824      -0.13027113      -1.77323614       0.00000000
