10
Lattice="16.28999089631971 0.0 0.0 0.0 16.28999089631971 0.0 0.0 0.0 34.64500226677339" Properties=species:S:1:pos:R:3:initial_magmoms:R:1 pbc="T T T"
Si      -1.35596331      -1.35503478       1.35725337       0.00000000
Si       1.35720135      -1.35746199      -1.35725337       0.00000000
Si      -1.35798327       1.35773892      -1.35742659       0.00000000
Si       1.35858600       1.35975888       1.35881239       0.00000000
Si      -2.71381626       0.00076563      -2.71391777       0.00000000
Si       0.00086337      -2.71480995      -2.71357132       0.00000000
Si       2.71446152       2.71484253      -0.00083148       0.00000000
Si       0.00096111       2.71652040      -2.71332880       0.00000000
Si      -2.71521720       2.71476108       0.00024252       0.00000000
Si       2.71498125      -2.71520091      -0.00027716       0.00000000
