10
Lattice="16.28999089631971 0.0 0.0 0.0 16.28999089631971 0.0 0.0 0.0 34.64500226677339" Properties=species:S:1:pos:R:3:initial_magmoms:R:1 pbc="T T T"
Si      -1.34623818      -1.33832124       1.38081198       0.00000000
Si      -1.35024552       1.36039419      -1.35974781       0.00000000
Si       1.36295172      -1.35521397      -1.35801556       0.00000000
Si       1.36306575       1.36207206       1.36286586       0.00000000
Si       0.16751007      -2.55409281       2.73948580       0.00000000
Si      -2.71085148      -0.00021177      -2.71658544       0.00000000
Si      -2.71642266      -2.71432125      -0.00131651       0.00000000
Si       0.00433314       2.71492398      -2.71686260       0.00000000
Si       0.00436572      -2.71497285      -2.71682795       0.00000000
Si       2.71804224      -2.71484253      -0.00010394       0.00000000
