10
Lattice="16.28999089631971 0.0 0.0 0.0 16.28999089631971 0.0 0.0 0.0 34.64500226677339" Properties=species:S:1:pos:R:3:initial_magmoms:R:1 pbc="T T T"
Si       1.35587552       1.35508365      -1.35964387       0.00000000
Si       1.35509052      -1.35962856       1.35791162       0.00000000
Si      -1.36295172       1.35521397       1.35801556       0.00000000
Si      -1.35858600      -1.35975888      -1.35881239       0.00000000
Si      -0.00084708       2.71236645      -2.71637757       0.00000000
Si      -2.71319724       2.71560816      -0.00173225       0.00000000
Si      -2.71454931      -2.71479366      -0.00155903       0.00000000
Si       2.71340479      -0.00213399      -2.71634292       0.00000000
Si       2.71519018       2.71463076      -0.00079684       0.00000000
Si       2.71486112      -2.71635750      -0.00003465       0.00000000
