10
Lattice="16.28999089631971 0.0 0.0 0.0 16.28999089631971 0.0 0.0 0.0 34.64500226677339" Properties=species:S:1:pos:R:3:initial_magmoms:R:1 pbc="T T T"
Si      -1.35629400      -1.35624024       1.35850059       0.00000000
Si      -1.35775032       1.35798327      -1.35780769       0.00000000
Si       1.35808101      -1.35790182      -1.35777304       0.00000000
Si       1.35997065       1.35852084       1.35701085       0.00000000
Si       2.71204065      -0.00047241       2.71474925       0.00000000
Si      -2.71345741       0.00110772      -2.71433351       0.00000000
Si      -0.00009774       2.70897813       2.71935704       0.00000000
Si       0.00070047      -2.71384884      -2.71523428       0.00000000
Si      -2.71475986      -2.71484253      -0.00055432       0.00000000
Si       2.71541268       2.71461447      -0.00027716       0.00000000
