10
Lattice="16.28999089631971 0.0 0.0 0.0 16.28999089631971 0.0 0.0 0.0 34.64500226677339" Properties=species:S:1:pos:R:3:initial_magmoms:R:1 pbc="T T T"
Si      -1.35457866      -1.35452979       1.35711479       0.00000000
Si       1.35721764       1.35786924       1.35753053       0.00000000
Si       1.35777150      -1.35777150      -1.35753053       0.00000000
Si      -1.35817875       1.35811359      -1.35718408       0.00000000
Si       0.00099369      -2.71337643      -2.71329416       0.00000000
Si      -2.71300176       0.00185706      -2.71377919       0.00000000
Si       2.71294716       0.00265527       2.71526893       0.00000000
Si       2.71449410      -2.71505430      -0.00079684       0.00000000
Si       2.71485193       2.71487511      -0.00006929       0.00000000
Si       0.00003258       2.71371852       2.71623899       0.00000000
