10
Lattice="16.28999089631971 0.0 0.0 0.0 16.28999089631971 0.0 0.0 0.0 34.64500226677339" Properties=species:S:1:pos:R:3:initial_magmoms:R:1 pbc="T T T"
Si       1.35572952      -1.35521397       1.35773840       0.00000000
Si      -1.35718506       1.35584928       1.35870846       0.00000000
Si       1.35763429       1.35700587      -1.35759982       0.00000000
Si      -1.35721764      -1.35786924      -1.35753053       0.00000000
Si      -2.71179630      -2.71239903      -0.00041574       0.00000000
Si      -2.71212210       2.71686249       0.00000000       0.00000000
Si       0.00003258       2.71487511      -2.71433351       0.00000000
Si       2.71659112      -2.71337643       0.00051968       0.00000000
Si      -2.71539639       0.00024435      -2.71471460       0.00000000
Si       0.00055386      -2.71564074      -2.71506105       0.00000000
