10
Lattice="16.28999089631971 0.0 0.0 0.0 16.28999089631971 0.0 0.0 0.0 34.64500226677339" Properties=species:S:1:pos:R:3:initial_magmoms:R:1 pbc="T T T"
Si      -1.06925931       1.72535535      -1.20349876       0.00000000
Si       1.78981066      -1.06334604      -1.15489180       0.00000000
Si      -0.83318463      -2.17580643       0.59225664       0.00000000
Si       0.32475744       1.69500708       1.67910562       0.00000000
Si      -2.86700742      -1.17892359       1.01548023       0.00000000
Si      -2.23280514       0.15068250      -2.67296735       0.00000000
Si       0.53738659      -2.53521270      -2.62758238       0.00000000
Si       0.58619632       2.82053205      -2.53341721       0.00000000
Si      -0.88614342       3.61023867       0.95973639       0.00000000
Si       3.47451758      -1.61386659       0.45669068       0.00000000
