10
Lattice="16.28999089631971 0.0 0.0 0.0 16.28999089631971 0.0 0.0 0.0 34.64500226677339" Properties=species:S:1:pos:R:3:initial_magmoms:R:1 pbc="T T T"
Si      -1.10480409      -1.47168747       1.46835995       0.00000000
Si       2.34624870       0.01829367      -0.34308965       0.00000000
Si      -0.85610466       2.18745378      -0.34565338       0.00000000
Si      -0.50288859      -1.46668644      -1.83805698       0.00000000
Si       0.54317376      -3.17689209       1.37769393       0.00000000
Si       0.16189002       2.99566584      -2.28899658       0.00000000
Si       3.18146958       2.18636235      -0.11540257       0.00000000
Si      -3.45253518      -1.73045412       0.50640628       0.00000000
Si      -3.14082603       2.10830067      -0.96358199       0.00000000
Si      -1.50824223      -0.25780554      -3.61648987       0.00000000
