10
Lattice="16.28999089631971 0.0 0.0 0.0 16.28999089631971 0.0 0.0 0.0 34.64500226677339" Properties=species:S:1:pos:R:3:initial_magmoms:R:1 pbc="T T T"
Si      -1.44498816       1.21026555       1.39264672       0.00000000
Si      -1.66144968      -0.86560173      -1.44908835       0.00000000
Si       0.99973359       1.67643878      -1.34986501       0.00000000
Si       1.26763893      -1.51280343       1.35216401       0.00000000
Si       2.61534388       2.59810092       0.08587808       0.00000000
Si      -2.53133568       2.72164590      -0.04121718       0.00000000
Si      -0.24615819      -0.71415360      -3.66879489       0.00000000
Si      -0.09977625       2.55981616       2.74221236       0.00000000
Si       2.62106330      -0.15890895       2.73642664       0.00000000
Si      -3.46812471       0.96568749      -1.23166205       0.00000000
