10
Lattice="16.28999089631971 0.0 0.0 0.0 16.28999089631971 0.0 0.0 0.0 34.64500226677339" Properties=species:S:1:pos:R:3:initial_magmoms:R:1 pbc="T T T"
Si       1.35342437       1.35389448       1.38426263       0.00000000
Si      -1.36557441      -1.36163223       1.38131780       0.00000000
Si      -1.26763893       1.51280343      -1.35216401       0.00000000
Si       1.41487839      -1.33014366      -1.45045887       0.00000000
Si       2.69820134      -2.70247842       0.02683603       0.00000000
Si       2.71229219       2.70730100       0.02568582       0.00000000
Si      -2.70928764      -2.71174743      -0.02848514       0.00000000
Si      -2.71262709       2.72306898       0.04048271       0.00000000
Si       2.71043513       0.00013032       2.74480727       0.00000000
Si      -0.00277528      -2.71539639       2.74598520       0.00000000
