10
Lattice="16.28999089631971 0.0 0.0 0.0 16.28999089631971 0.0 0.0 0.0 34.64500226677339" Properties=species:S:1:pos:R:3:initial_magmoms:R:1 pbc="T T T"
Si       1.35718506      -1.35584928      -1.35870846       0.00000000
Si      -1.35493704       1.36101321      -1.35870846       0.00000000
Si      -1.36855548      -1.33530759       1.37073028       0.00000000
Si       1.37458278       1.35829278       1.38084663       0.00000000
Si       0.08083098      -2.57311953       2.70778560       0.00000000
Si       2.71291458      -2.71106325      -0.00097006       0.00000000
Si       2.71349302       2.71550539      -0.00013858       0.00000000
Si      -0.00003258      -2.71371852      -2.71623899       0.00000000
Si       2.71481935       0.00115659      -2.71630828       0.00000000
Si      -2.71521720       0.00143352      -2.71610041       0.00000000
