10
Lattice="16.28999089631971 0.0 0.0 0.0 16.28999089631971 0.0 0.0 0.0 34.64500226677339" Properties=species:S:1:pos:R:3:initial_magmoms:R:1 pbc="T T T"
Si       1.87642410       1.34566803      -0.33792754       0.00000000
Si      -0.99206100      -0.27855900       2.16417057       0.00000000
Si      -1.39277871       1.84728600      -0.73218789       0.00000000
Si       0.46560078      -2.06156466      -1.27019043       0.00000000
Si       1.27811340       2.64787990       1.64619285       0.00000000
Si      -1.66485429       0.80821206      -2.82315352       0.00000000
Si      -2.53726524      -1.97988660       1.39595186       0.00000000
Si       3.57802424      -0.07203438       0.54912359       0.00000000
Si       2.59812698      -1.19948157       2.38485935       0.00000000
Si       1.72397665       0.82580526       3.21266750       0.00000000
