10
Lattice="16.28999089631971 0.0 0.0 0.0 16.28999089631971 0.0 0.0 0.0 34.64500226677339" Properties=species:S:1:pos:R:3:initial_magmoms:R:1 pbc="T T T"
Si      -0.27207558      -1.03907394      -2.09096564       0.00000000
Si      -2.03807448      -0.12825117       1.20928448       0.00000000
Si       1.39277871      -1.84728600       0.73218789       0.00000000
Si       0.11476305       2.45655548      -0.47837846       0.00000000
Si       3.26920281      -0.50161797       0.39426035       0.00000000
Si      -0.91458576      -0.20038329       3.32425912       0.00000000
Si       0.40071771      -2.12584500       2.89635845       0.00000000
Si       2.67089211       0.80059390       2.37838073       0.00000000
Si      -0.05136237       2.44720502      -2.79606112       0.00000000
Si       0.58013577       1.65593781       3.33815177       0.00000000
