10
Lattice="16.28999089631971 0.0 0.0 0.0 16.28999089631971 0.0 0.0 0.0 34.64500226677339" Properties=species:S:1:pos:R:3:initial_magmoms:R:1 pbc="T T T"
Si      -1.97302851      -0.89081865      -0.92422524       0.00000000
Si       1.04655105      -1.70012214       1.24936877       0.00000000
Si       1.18301238       0.31648212      -2.03369741       0.00000000
Si      -0.46560078       2.06156466       1.27019043       0.00000000
Si      -0.02788848       2.23171371      -2.75306664       0.00000000
Si      -2.99102319      -1.69903071       1.01911796       0.00000000
Si       1.41082332       3.40723269       0.93226289       0.00000000
Si      -3.46628394       0.88444926      -1.33702067       0.00000000
Si       1.02644919      -1.25864685       3.52800649       0.00000000
Si      -2.13045507       2.86977672      -1.55296309       0.00000000
