10
Lattice="16.28999089631971 0.0 0.0 0.0 16.28999089631971 0.0 0.0 0.0 34.64500226677339" Properties=species:S:1:pos:R:3:initial_magmoms:R:1 pbc="T T T"
Si       0.27207558       1.03907394       2.09096564       0.00000000
Si      -1.33582887      -1.98532746       0.21594242       0.00000000
Si      -1.17296145       1.64386855      -1.35870846       0.00000000
Si       2.10256659      -0.63806301      -1.20010355       0.00000000
Si      -0.47433222       0.02293632      -3.11174655       0.00000000
Si       1.66485429      -0.80821206       2.82315352       0.00000000
Si       0.22071321       3.48627896      -0.70509548       0.00000000
Si       0.15742656      -3.76059537       0.62873785       0.00000000
Si      -1.76599890       0.91082277       3.30025012       0.00000000
Si       0.38683863       3.49562942       1.61258718       0.00000000
