10
Lattice="16.28999089631971 0.0 0.0 0.0 16.28999089631971 0.0 0.0 0.0 34.64500226677339" Properties=species:S:1:pos:R:3:initial_magmoms:R:1 pbc="T T T"
Si       2.32034760       0.01817964       0.46632199       0.00000000
Si      -0.72742995      -1.90029366       1.30105914       0.00000000
Si      -0.93274911       1.85300379       1.45436336       0.00000000
Si      -0.56817891      -1.34170956      -2.53123457       0.00000000
Si       1.65964149       2.31058989      -2.25653419       0.00000000
Si      -1.78407591      -3.25231479      -0.25044886       0.00000000
Si       3.14221068       2.10523815      -0.32063968       0.00000000
Si      -1.04049443       0.89990847       3.60460663       0.00000000
Si       0.25905987       0.51500835      -3.92424160       0.00000000
Si      -2.03539640      -1.20971169       3.21259821       0.00000000
