10
Lattice="16.28999089631971 0.0 0.0 0.0 16.28999089631971 0.0 0.0 0.0 34.64500226677339" Properties=species:S:1:pos:R:3:initial_magmoms:R:1 pbc="T T T"
Si      -0.80269857      -2.27227581      -0.04846839       0.00000000
Si      -1.20191760       1.12578561      -1.78505009       0.00000000
Si       2.40880067      -0.48643569      -0.28997883       0.00000000
Si      -0.41126874       1.08859554       2.30223098       0.00000000
Si       1.72396907       0.70180578       3.12009600       0.00000000
Si       2.80062404      -1.13562477       2.04131932       0.00000000
Si      -2.54911689      -2.45376270       1.59197339       0.00000000
Si       0.86307189      -3.78110774       0.90163669       0.00000000
Si      -1.18069173      -3.03133605      -2.30489864       0.00000000
Si      -1.47772359       3.18868605       1.89930938       0.00000000
