10
Lattice="16.28999089631971 0.0 0.0 0.0 16.28999089631971 0.0 0.0 0.0 34.64500226677339" Properties=species:S:1:pos:R:3:initial_magmoms:R:1 pbc="T T T"
Si      -2.13523781       0.38678976      -0.81786503       0.00000000
Si       1.07665497      -1.83743055      -1.07877668       0.00000000
Si       0.80576856       2.41852743      -0.44719794       0.00000000
Si       0.15037299      -2.22032700       1.92193539       0.00000000
Si      -2.74448123       0.73326177       1.73443372       0.00000000
Si       3.29144337      -1.35739683      -0.40919235       0.00000000
Si      -0.93651536       1.78755057       3.01737840       0.00000000
Si      -1.72396907      -0.70180578      -3.12009600       0.00000000
Si       0.68483160      -1.18824147      -3.41007483       0.00000000
Si       1.76575455      -1.08395289       3.17077617       0.00000000
