10
Lattice="16.28999089631971 0.0 0.0 0.0 16.28999089631971 0.0 0.0 0.0 34.64500226677339" Properties=species:S:1:pos:R:3:initial_magmoms:R:1 pbc="T T T"
Si       1.35657040       1.35465372       1.35805020       0.00000000
Si      -1.36251146       1.35582660      -1.35475893       0.00000000
Si      -1.35884621      -1.36016178       1.35829272       0.00000000
Si       1.35832809      -1.36289850      -1.36054464       0.00000000
Si      -2.70772337       0.00627600      -2.70432456       0.00000000
Si      -0.00108259       2.71198702       2.71485318       0.00000000
Si       2.71437774       2.71298071       0.00017323       0.00000000
Si      -2.71520048       2.71237798       0.00155903       0.00000000
Si       2.71387275      -0.00270664       2.71485318       0.00000000
Si      -2.71542854      -2.71443093       0.00069290       0.00000000
