10
Lattice="16.28999089631971 0.0 0.0 0.0 16.28999089631971 0.0 0.0 0.0 34.64500226677339" Properties=species:S:1:pos:R:3:initial_magmoms:R:1 pbc="T T T"
Si      -1.68470691       0.55052055      -1.61158247       0.00000000
Si       0.68719365       2.31917472       0.41944728       0.00000000
Si      -0.14493213      -0.34386561       2.47032862       0.00000000
Si       1.24175412      -1.90096155      -1.18801244       0.00000000
Si       2.22778782      -0.29304081       2.32859584       0.00000000
Si       2.72432331      -2.10631329       0.74788208       0.00000000
Si      -0.29892150       1.76661792      -3.05624523       0.00000000
Si      -1.35063648      -2.35854765       2.52288512       0.00000000
Si       2.52190377       2.02269672       1.97164818       0.00000000
Si      -3.47451758       1.61386659      -0.45669068       0.00000000
