10
Lattice="16.28999089631971 0.0 0.0 0.0 16.28999089631971 0.0 0.0 0.0 34.64500226677339" Properties=species:S:1:pos:R:3:initial_magmoms:R:1 pbc="T T T"
Si      -1.20570435      -2.01468204       0.05255650       0.00000000
Si       2.37271995       0.05082480      -0.14173278       0.00000000
Si      -0.77687010       1.49635053       1.69438407       0.00000000
Si       0.14493213       0.34386561      -2.47032862       0.00000000
Si       0.83212578       2.66304033      -2.05088135       0.00000000
Si       2.66683590       2.36656233      -0.49868044       0.00000000
Si      -3.43377629      -1.34327340      -0.39786343       0.00000000
Si       0.19342746       0.65259369       3.70348352       0.00000000
Si       2.86925544      -1.76244768      -1.72244654       0.00000000
Si      -0.03720636       3.69181899       1.25262540       0.00000000
