10
Lattice="16.28999089631971 0.0 0.0 0.0 16.28999089631971 0.0 0.0 0.0 34.64500226677339" Properties=species:S:1:pos:R:3:initial_magmoms:R:1 pbc="T T T"
Si      -1.73329902      -0.05704758      -1.52160935       0.00000000
Si       1.83066694      -0.90947070      -1.10680451       0.00000000
Si      -0.63173664      -0.89472825       2.06196775       0.00000000
Si       0.47171767       2.22384564       0.66012624       0.00000000
Si       3.46413040       0.00498474       0.38871714       0.00000000
Si       0.01552616      -3.17785320       1.64595033       0.00000000
Si       2.81181364       2.33220672       0.32119400       0.00000000
Si      -1.35882450       3.39675822      -0.44837587       0.00000000
Si      -1.83478572       2.12374359      -2.45896506       0.00000000
Si      -3.73242411      -0.33505272      -0.34405971       0.00000000
