10
Lattice="16.28999089631971 0.0 0.0 0.0 16.28999089631971 0.0 0.0 0.0 34.64500226677339" Properties=species:S:1:pos:R:3:initial_magmoms:R:1 pbc="T T T"
Si       0.72738271       1.68205653       1.54962128       0.00000000
Si       1.69642268      -1.86466743       0.13081960       0.00000000
Si      -1.88645598      -1.07978265       1.36650501       0.00000000
Si       0.39471322       1.32235704      -2.44022210       0.00000000
Si       2.01070565       0.30972177       3.02691618       0.00000000
Si       2.52071297       2.70047475       0.41182784       0.00000000
Si       3.36538205      -0.91875600       1.54867547       0.00000000
Si      -0.68879889      -2.41186482       3.00402275       0.00000000
Si       0.70110042      -3.62141361       1.47823867       0.00000000
Si      -2.89482327      -2.89587330       0.17433375       0.00000000
