10
Lattice="16.28999089631971 0.0 0.0 0.0 16.28999089631971 0.0 0.0 0.0 34.64500226677339" Properties=species:S:1:pos:R:3:initial_magmoms:R:1 pbc="T T T"
Si      -1.62173370      -0.70737696      -1.66635625       0.00000000
Si       2.02337275      -0.79501716      -1.22373145       0.00000000
Si      -0.22343853       2.59744050      -0.63043546       0.00000000
Si      -0.39471322      -1.32235704       2.44022210       0.00000000
Si      -3.47310849       0.57500442      -0.69837435       0.00000000
Si      -2.59600602       2.48849298       0.41934334       0.00000000
Si      -0.97447090      -2.99050191      -2.08237367       0.00000000
Si       1.45651333      -3.09203748      -1.61930831       0.00000000
Si       2.12599975       1.37811771       2.85204994       0.00000000
Si      -0.98999706       0.18735129      -3.72832400       0.00000000
