10
Lattice="16.28999089631971 0.0 0.0 0.0 16.28999089631971 0.0 0.0 0.0 34.64500226677339" Properties=species:S:1:pos:R:3:initial_magmoms:R:1 pbc="T T T"
Si      -0.66393153       0.42608124      -2.18547725       0.00000000
Si       2.31782265      -0.02181231       0.26815247       0.00000000
Si      -0.73966374      -2.19546846       0.44175867       0.00000000
Si      -1.03821057       1.63396845       1.35247235       0.00000000
Si       2.70404226      -1.32525666      -1.75130584       0.00000000
Si       0.86933214      -1.02877866      -3.30350675       0.00000000
Si       2.69666289       0.01681128       2.65432833       0.00000000
Si       3.15534042       2.08313262      -0.30033769       0.00000000
Si      -3.10408298      -2.05568397       0.78252710       0.00000000
Si      -2.01810783       0.50652126       3.18820812       0.00000000
