10
Lattice="16.28999089631971 0.0 0.0 0.0 16.28999089631971 0.0 0.0 0.0 34.397273925272025" Properties=species:S:1:pos:R:3:initial_magmoms:R:1 pbc="T T T"
Si      -1.91168526      -0.05659146       1.34634445       0.00000000
Si       1.19667969       1.96653273       0.54629781       0.00000000
Si       1.63448973      -1.68549372      -0.31614552       0.00000000
Si      -0.91495066       0.16589736      -2.23100843       0.00000000
Si      -1.11428976      -2.10544992      -2.65474869       0.00000000
Si      -2.72721383       2.16473642       0.93385211       0.00000000
Si       0.42845958       3.36923531      -1.22980642       0.00000000
Si       3.41826102      -0.44768178      -1.14371000       0.00000000
Si       3.41565462       1.15215912       0.55644501       0.00000000
Si       0.98041365      -2.98577781      -2.17542241       0.00000000
