10
Lattice="16.28999089631971 0.0 0.0 0.0 16.28999089631971 0.0 0.0 0.0 34.397273925272025" Properties=species:S:1:pos:R:3:initial_magmoms:R:1 pbc="T T T"
Si       1.91168526       0.05659146      -1.34634445       0.00000000
Si      -1.57749332      -1.51567047      -0.84349042       0.00000000
Si       0.15509546      -0.69014214       2.27589690       0.00000000
Si      -0.81552857       2.22132788      -0.41249234       0.00000000
Si      -2.86192724      -0.04474863      -2.12220980       0.00000000
Si      -0.73411115       3.11633957       1.82016716       0.00000000
Si       0.99673460       0.22248882      -3.57735288       0.00000000
Si       0.49008465      -3.06423045       2.09338486       0.00000000
Si      -3.12538541       1.90247393      -0.85766211       0.00000000
Si       3.10836495       2.02312419      -0.80004664       0.00000000
