10
Lattice="16.28999089631971 0.0 0.0 0.0 16.28999089631971 0.0 0.0 0.0 34.397273925272025" Properties=species:S:1:pos:R:3:initial_magmoms:R:1 pbc="T T T"
Si       1.06103286       1.66464496       1.37637329       0.00000000
Si      -1.58483455      -1.21810578       1.34947460       0.00000000
Si      -1.40001310       1.29218552      -1.49435600       0.00000000
Si       1.31637861      -1.42484217      -1.48358965       0.00000000
Si       2.68074756       2.70997426      -0.07460773       0.00000000
Si       2.72704374      -2.77112922       0.03852497       0.00000000
Si      -2.69211912      -2.82069969       0.02050079       0.00000000
Si      -2.77740332       2.73561472      -0.13070971       0.00000000
Si      -0.04419477       2.65235653      -2.87891585       0.00000000
Si       2.67250482      -0.06631723      -2.87805592       0.00000000
