10
Lattice="16.28999089631971 0.0 0.0 0.0 16.28999089631971 0.0 0.0 0.0 34.397273925272025" Properties=species:S:1:pos:R:3:initial_magmoms:R:1 pbc="T T T"
Si      -1.35466011       1.35593887       1.36216721       0.00000000
Si       1.36112724      -1.35941068       1.36099770       0.00000000
Si      -1.34974053      -1.35259032      -1.38565368       0.00000000
Si       1.37845980       1.33562524      -1.37818259       0.00000000
Si      -2.70919967       2.71172300       0.00134149       0.00000000
Si      -2.71258148      -0.00174140       2.71893404       0.00000000
Si       0.00285075       2.71322168       2.71872765       0.00000000
Si       2.72056032       2.71216283       0.00068795       0.00000000
Si      -2.71429519      -2.71906068       0.00546917       0.00000000
Si       2.71814940      -2.71552575       0.00316455       0.00000000
