10
Lattice="16.28999089631971 0.0 0.0 0.0 16.28999089631971 0.0 0.0 0.0 34.397273925272025" Properties=species:S:1:pos:R:3:initial_magmoms:R:1 pbc="T T T"
Si       1.33108848      -1.24400770       1.50295877       0.00000000
Si       1.33610580       1.43269084      -1.32334096       0.00000000
Si      -0.89169831      -1.73520007      -1.40090685       0.00000000
Si      -1.37482713       1.45276012       1.48226879       0.00000000
Si       2.67807600      -2.56968790       0.10842027       0.00000000
Si      -2.68104078      -2.58625483       0.01660357       0.00000000
Si      -0.03513753      -2.59839088       2.86361593       0.00000000
Si       2.70316260       2.83716577       0.11138875       0.00000000
Si       2.67784794       0.11638553       2.86313437       0.00000000
Si      -2.61413775       2.94057469       0.12362043       0.00000000
