10
Lattice="16.28999089631971 0.0 0.0 0.0 16.28999089631971 0.0 0.0 0.0 34.397273925272025" Properties=species:S:1:pos:R:3:initial_magmoms:R:1 pbc="T T T"
Si       1.96276581      -0.81343952       0.98496649       0.00000000
Si      -1.06103286      -1.66464496      -1.37637329       0.00000000
Si       1.61971470       1.04532930      -1.45098102       0.00000000
Si      -1.30357467       1.37450133       1.56311619       0.00000000
Si       0.24542514       2.34554823      -2.88916624       0.00000000
Si      -2.46104596      -0.37245945      -2.87072929       0.00000000
Si      -1.69114635      -0.27041074       3.39917491       0.00000000
Si      -2.91973163       2.60242524       0.09909860       0.00000000
Si      -2.64586741      -2.88275075      -0.02689868       0.00000000
Si       2.96953668      -2.63812382      -0.42490976       0.00000000
