10
Lattice="16.28999089631971 0.0 0.0 0.0 16.28999089631971 0.0 0.0 0.0 34.397273925272025" Properties=species:S:1:pos:R:3:initial_magmoms:R:1 pbc="T T T"
Si       1.34721558       0.05360224       1.96556452       0.00000000
Si      -0.45706482      -2.13418452      -1.04337309       0.00000000
Si       1.07722512       1.13504647      -1.84661868       0.00000000
Si      -2.00937150       1.35321844       0.16228643       0.00000000
Si      -2.79114489      -1.84109484      -1.01709356       0.00000000
Si      -3.38905305       0.42876420      -1.47674459       0.00000000
Si       0.13245399       1.22170928       3.63833929       0.00000000
Si      -1.45398024       3.52428448      -0.61096472       0.00000000
Si       0.71281782       3.53894549      -1.44537426       0.00000000
Si       2.97207792       1.74901657       1.81060472       0.00000000
