10
Lattice="16.28999089631971 0.0 0.0 0.0 16.28999089631971 0.0 0.0 0.0 34.397273925272025" Properties=species:S:1:pos:R:3:initial_magmoms:R:1 pbc="T T T"
Si      -1.37968155      -0.92445424      -1.63903102       0.00000000
Si       0.55539126       2.17106604      -0.77325115       0.00000000
Si      -1.22491026       0.31620519       2.03869317       0.00000000
Si       2.00937150      -1.35321844      -0.16228643       0.00000000
Si      -0.78177339      -3.19431329      -1.17937999       0.00000000
Si       0.76041720       3.27284019       1.20569392       0.00000000
Si      -1.32201495       2.70233181       1.98905787       0.00000000
Si      -0.99210987       0.72045783      -3.47508973       0.00000000
Si       3.08659662      -0.21817197      -2.00890511       0.00000000
Si      -0.05149269      -0.94796397       3.59929836       0.00000000
