10
Lattice="16.28999089631971 0.0 0.0 0.0 16.28999089631971 0.0 0.0 0.0 34.397273925272025" Properties=species:S:1:pos:R:3:initial_magmoms:R:1 pbc="T T T"
Si      -1.96276581      -0.58521825      -1.22732982       0.00000000
Si       1.82938329       0.26777502      -1.51179543       0.00000000
Si      -0.69680475       2.11295961       0.92993082       0.00000000
Si       0.55736235      -2.20329271       1.02810069       0.00000000
Si      -2.89709505       1.17595881       1.48936840       0.00000000
Si      -2.09958552       1.55924622      -2.27311072       0.00000000
Si      -0.69190146       3.18948426      -1.35287994       0.00000000
Si       3.55208337      -0.65715489      -0.16039458       0.00000000
Si       1.58268753       2.60470584      -1.96793794       0.00000000
Si      -3.51231948      -0.97574168       0.51079980       0.00000000
