10
Lattice="16.28999089631971 0.0 0.0 0.0 16.28999089631971 0.0 0.0 0.0 34.397273925272025" Properties=species:S:1:pos:R:3:initial_magmoms:R:1 pbc="T T T"
Si      -1.35770634       1.35648459       1.35638846       0.00000000
Si       1.35690813      -1.35780408       1.35687002       0.00000000
Si       1.35679410       1.35795069      -1.35693882       0.00000000
Si      -1.35855342      -1.35674523      -1.35831471       0.00000000
Si      -2.71565703       0.00091224       2.71105706       0.00000000
Si       2.71363707       0.00158013       2.71422161       0.00000000
Si      -0.00034209      -2.71450044       2.71353366       0.00000000
Si       2.71164969       0.00231318      -2.71693899       0.00000000
Si       0.00138465       2.71295289       2.71573509       0.00000000
Si       2.71458189       2.71492398      -0.00027518       0.00000000
