10
Lattice="16.28999089631971 0.0 0.0 0.0 16.28999089631971 0.0 0.0 0.0 34.397273925272025" Properties=species:S:1:pos:R:3:initial_magmoms:R:1 pbc="T T T"
Si       1.94574276       0.64936827       1.12551383       0.00000000
Si       1.41222897      -1.28992365      -1.35126326       0.00000000
Si      -1.32137964       1.43397612      -1.32959297       0.00000000
Si      -1.30158729      -1.49692068       1.32543090       0.00000000
Si       0.76848075      -0.43222257       3.04336931       0.00000000
Si       0.05129721      -2.63852388      -2.71071308       0.00000000
Si      -2.65450437       0.06641433      -2.71260493       0.00000000
Si       2.72231964       2.64877029       0.00454044       0.00000000
Si      -1.71945837      -0.42389838       3.36563755       0.00000000
Si       2.88580608      -2.57355936       0.00533158       0.00000000
