10
Lattice="16.28999089631971 0.0 0.0 0.0 16.28999089631971 0.0 0.0 0.0 34.397273925272025" Properties=species:S:1:pos:R:3:initial_magmoms:R:1 pbc="T T T"
Si      -0.91184124      -0.36814423       2.15134430       0.00000000
Si      -0.71543271       1.56934602      -1.62169478       0.00000000
Si       2.22047231       0.83455299       0.02961607       0.00000000
Si      -0.32388627      -2.15442485      -0.95999405       0.00000000
Si      -0.18379227       0.29942649      -3.53800238       0.00000000
Si       1.85301878      -3.08883554      -0.99050445       0.00000000
Si      -3.06779016       0.57260979       2.10064269       0.00000000
Si       3.39388988      -0.42961617       1.59022126       0.00000000
Si      -1.21859823      -1.77909720      -3.13816825       0.00000000
Si      -0.96338280      -2.70569474       2.54158159       0.00000000
