10
Lattice="16.28999089631971 0.0 0.0 0.0 16.28999089631971 0.0 0.0 0.0 34.397273925272025" Properties=species:S:1:pos:R:3:initial_magmoms:R:1 pbc="T T T"
Si       0.60303951      -0.16734717      -2.28232919       0.00000000
Si       0.24669576      -2.33693082       0.45614250       0.00000000
Si      -2.27458899       0.58477842       0.61505800       0.00000000
Si       1.52651961       1.13841036       1.50594789       0.00000000
Si      -1.58268753      -2.60470584       1.96793794       0.00000000
Si       2.88534996      -0.61861275      -2.18233626       0.00000000
Si      -2.27949228      -0.49174623       2.89786876       0.00000000
Si      -0.73293597      -2.02110030      -3.03848489       0.00000000
Si      -3.68227305      -1.04545962      -0.30517278       0.00000000
Si       0.98191233       3.38341671       1.73892076       0.00000000
