10
Lattice="16.28999089631971 0.0 0.0 0.0 16.28999089631971 0.0 0.0 0.0 34.397273925272025" Properties=species:S:1:pos:R:3:initial_magmoms:R:1 pbc="T T T"
Si       0.69680475      -2.11295961      -0.92993082       0.00000000
Si      -2.20029030      -0.93700080       0.55943758       0.00000000
Si       0.00490329       1.07652465      -2.28281076       0.00000000
Si       0.39605877       1.32398604       2.28380828       0.00000000
Si      -1.40278077      -0.55371339      -3.20304154       0.00000000
Si      -1.26596106      -2.69817786      -2.15726064       0.00000000
Si       2.27949228       0.49174623      -2.89786876       0.00000000
Si      -2.33349363      -1.19685888       2.89078227       0.00000000
Si      -0.44644374      -0.28035090       3.90134584       0.00000000
Si       2.52618804      -1.84518459      -2.44172625       0.00000000
