10
Lattice="16.28999089631971 0.0 0.0 0.0 16.28999089631971 0.0 0.0 0.0 34.397273925272025" Properties=species:S:1:pos:R:3:initial_magmoms:R:1 pbc="T T T"
Si      -1.35601218      -1.34825814      -1.38445665       0.00000000
Si       1.36161594       1.35951453      -1.38597013       0.00000000
Si       1.31805648      -1.49656230       1.32546529       0.00000000
Si      -1.29427308       1.36611198       1.52999160       0.00000000
Si      -2.70493821       2.71239903       0.00787698       0.00000000
Si      -2.72564280      -2.71135647      -0.00866812       0.00000000
Si      -2.71019988       0.00296478      -2.74569513       0.00000000
Si       2.73105108      -2.72486088      -0.04189590       0.00000000
Si       0.00697212      -2.71446786      -2.74497279       0.00000000
Si       2.71966437       2.74176990      -0.01241742       0.00000000
