10
Lattice="16.28999089631971 0.0 0.0 0.0 16.28999089631971 0.0 0.0 0.0 34.397273925272025" Properties=species:S:1:pos:R:3:initial_magmoms:R:1 pbc="T T T"
Si       0.67991202      -0.36372312      -2.19275864       0.00000000
Si       1.25547030       1.88952597       0.50636255       0.00000000
Si      -2.34916787       0.16443126       0.28436242       0.00000000
Si       0.76822011      -1.40270258       1.77610423       0.00000000
Si       0.47314305       2.11308993       2.67827644       0.00000000
Si       3.42248013       1.13744925      -0.05503567       0.00000000
Si      -0.42845958      -3.36923531       1.22980642       0.00000000
Si      -1.34341024      -3.20333795      -1.00120201       0.00000000
Si       2.87323020       0.45273168      -2.31600414       0.00000000
Si       0.29356209      -2.61665360      -2.68140659       0.00000000
