10
Lattice="16.28999089631971 0.0 0.0 0.0 16.28999089631971 0.0 0.0 0.0 34.397273925272025" Properties=species:S:1:pos:R:3:initial_magmoms:R:1 pbc="T T T"
Si       1.55742174       1.11977460       1.31826918       0.00000000
Si      -1.22056083      -1.59887979       1.25792257       0.00000000
Si       1.70922825      -1.30329774      -1.38804934       0.00000000
Si      -2.01235257       1.95426243      -0.19105794       0.00000000
Si       0.21043422       2.44545480       2.71280768       0.00000000
Si      -2.52333729      -0.26818227       2.70660241       0.00000000
Si       2.81553102       2.53508077      -0.06585179       0.00000000
Si      -2.78857107      -2.78485695      -0.14331449       0.00000000
Si       2.91802770      -0.25352127       2.70906182       0.00000000
Si       0.19969911      -2.98398591       2.69214867       0.00000000
