10
Lattice="16.28999089631971 0.0 0.0 0.0 16.28999089631971 0.0 0.0 0.0 34.397273925272025" Properties=species:S:1:pos:R:3:initial_magmoms:R:1 pbc="T T T"
Si      -1.34306163      -1.35930276       1.36679364       0.00000000
Si       1.30277646      -1.33069752      -1.44867984       0.00000000
Si       1.36754550       1.35925389       1.36686244       0.00000000
Si      -1.27835775       1.37138994      -1.48014992       0.00000000
Si       0.51098472       2.22244470      -2.89766035       0.00000000
Si       2.52333729       0.26818227      -2.70660241       0.00000000
Si      -0.26523378      -2.51667468      -2.84991690       0.00000000
Si      -2.69858511      -2.72147256      -0.01546158       0.00000000
Si      -2.70034443       2.72218932      -0.02195579       0.00000000
Si      -2.70633915       0.00006516       2.72497076       0.00000000
