10
Lattice="16.28999089631971 0.0 0.0 0.0 16.28999089631971 0.0 0.0 0.0 34.397273925272025" Properties=species:S:1:pos:R:3:initial_magmoms:R:1 pbc="T T T"
Si       1.35418770      -1.35122292       1.36123848       0.00000000
Si      -1.35392706       1.35420399       1.36123848       0.00000000
Si       1.35773892       1.35736425      -1.35711080       0.00000000
Si      -1.35708732      -1.35775521      -1.35824591       0.00000000
Si      -2.71342041      -2.71560816       0.00185745       0.00000000
Si       0.00078192       2.71430496      -2.71545991       0.00000000
Si      -2.71444017      -0.00055386      -2.71545991       0.00000000
Si       2.71467963       2.71526607      -0.00058475       0.00000000
Si      -2.71563097       2.71485882      -0.00034397       0.00000000
Si       0.00063531      -2.71539639      -2.71542551       0.00000000
