10
Lattice="16.28999089631971 0.0 0.0 0.0 16.28999089631971 0.0 0.0 0.0 34.397273925272025" Properties=species:S:1:pos:R:3:initial_magmoms:R:1 pbc="T T T"
Si      -1.35329175       1.35269313       1.35969060       0.00000000
Si      -1.35694071      -1.35790182      -1.35652605       0.00000000
Si       1.35847197       1.35690988      -1.35697321       0.00000000
Si       1.35713619      -1.35871632       1.36030975       0.00000000
Si      -2.71389771      -0.00096111      -2.71487516       0.00000000
Si       0.00131949       2.71441966      -2.71463438       0.00000000
Si      -2.71430496       2.71521298      -0.00051596       0.00000000
Si      -2.71467963      -2.71526607       0.00058475       0.00000000
Si       2.71547784      -0.00047241      -2.71490955       0.00000000
Si       0.00109143      -2.71581993      -2.71484076       0.00000000
