10
Lattice="16.28999089631971 0.0 0.0 0.0 16.28999089631971 0.0 0.0 0.0 34.397273925272025" Properties=species:S:1:pos:R:3:initial_magmoms:R:1 pbc="T T T"
Si       0.18349056      -2.37669471       0.18405992       0.00000000
Si       2.11918239       0.76043349       0.85294968       0.00000000
Si      -0.54656208       0.96011631      -2.22970134       0.00000000
Si      -0.40366620       1.52774350       1.96353508       0.00000000
Si      -1.48227597      -3.13132896      -1.30971133       0.00000000
Si       0.91158840       2.73146877      -2.70400561       0.00000000
Si      -0.96102855       3.73103621       0.93543439       0.00000000
Si      -2.76553701       1.77448992      -2.23984854       0.00000000
Si       2.22927021      -3.26476035      -0.53312365       0.00000000
Si      -0.54395568      -0.63972459      -3.92985634       0.00000000
