10
Lattice="16.28999089631971 0.0 0.0 0.0 16.28999089631971 0.0 0.0 0.0 34.397273925272025" Properties=species:S:1:pos:R:3:initial_magmoms:R:1 pbc="T T T"
Si       0.00260640      -1.59984090      -1.70015501       0.00000000
Si       1.45815048       1.77135246      -0.47430428       0.00000000
Si      -2.21897493       0.81437361      -0.01014720       0.00000000
Si       0.54656208      -0.96011631       2.22970134       0.00000000
Si      -1.78116489      -2.83765284      -0.87259053       0.00000000
Si      -3.41565462      -1.15215912      -0.55644501       0.00000000
Si       2.17701189      -2.50318656      -1.61395539       0.00000000
Si       1.41491682       3.03869492       1.65334029       0.00000000
Si      -2.37723228       2.18570165       1.93780591       0.00000000
Si       0.43528509       3.35452544      -1.84128710       0.00000000
