10
Lattice="16.28999089631971 0.0 0.0 0.0 16.28999089631971 0.0 0.0 0.0 34.397273925272025" Properties=species:S:1:pos:R:3:initial_magmoms:R:1 pbc="T T T"
Si      -1.34675946      -1.36039323      -1.36017560       0.00000000
Si      -1.35404109       1.35670450       1.35903705       0.00000000
Si       1.36032903      -1.35712896       1.35914024       0.00000000
Si       1.37420811       1.34795677      -1.37069429       0.00000000
Si      -2.71057455       2.71291216      -0.00199504       0.00000000
Si      -2.71298547      -2.71477641       0.00048156       0.00000000
Si      -2.71251306      -0.00130157       2.71607906       0.00000000
Si       0.00205254       2.71318909       2.71594147       0.00000000
Si       2.71842633       2.71144606      -0.00199504       0.00000000
Si       2.71520091      -2.71614477       0.00082554       0.00000000
