10
Lattice="16.28999089631971 0.0 0.0 0.0 16.28999089631971 0.0 0.0 0.0 34.397273925272025" Properties=species:S:1:pos:R:3:initial_magmoms:R:1 pbc="T T T"
Si       1.35650088       1.35625744       1.35683563       0.00000000
Si       1.35487188      -1.35901581      -1.35831471       0.00000000
Si      -1.35868374      -1.35906468       1.35666364       0.00000000
Si      -1.36032903       1.35712896      -1.35914024       0.00000000
Si       0.00050499      -2.70224034      -2.72306171       0.00000000
Si       2.71399545       2.71213930      -0.00030958       0.00000000
Si      -2.70708849      -0.00326427      -2.71931585       0.00000000
Si      -0.00109143       2.71332847       2.71429040       0.00000000
Si       2.71389771      -0.00218735       2.71418721       0.00000000
Si      -2.71437012       2.71383346      -0.00010319       0.00000000
