10
Lattice="16.28999089631971 0.0 0.0 0.0 16.28999089631971 0.0 0.0 0.0 34.397273925272025" Properties=species:S:1:pos:R:3:initial_magmoms:R:1 pbc="T T T"
Si       0.44773065      -1.74008151      -1.55190267       0.00000000
Si       1.71892080      -0.54556839       1.56511124       0.00000000
Si      -2.12134896       0.71754192       0.85845325       0.00000000
Si       1.62393381       0.05773176      -2.59290235       0.00000000
Si      -2.91644757       1.54629567      -1.37279597       0.00000000
Si       3.13937622       1.47582513       1.18054950       0.00000000
Si       3.12626277      -2.26611819       0.49002384       0.00000000
Si      -1.25933103       2.58204645      -2.67693494       0.00000000
Si       3.60098595       1.09631700      -1.15791608       0.00000000
Si      -2.25336312      -0.12883761       3.26636696       0.00000000
