10
Lattice="16.28999089631971 0.0 0.0 0.0 16.28999089631971 0.0 0.0 0.0 34.397273925272025" Properties=species:S:1:pos:R:3:initial_magmoms:R:1 pbc="T T T"
Si       1.25652915      -1.42496775      -1.35171043       0.00000000
Si      -1.10056869      -1.56182004       1.34768595       0.00000000
Si       0.98003898       1.67656680       1.36065373       0.00000000
Si      -1.47357711       1.28363571      -1.35659484       0.00000000
Si      -0.94006332       3.22292763       1.12018225       0.00000000
Si      -2.36390706      -0.15482016       2.74552314       0.00000000
Si       0.72563805      -3.22989975       1.71835118       0.00000000
Si       2.59744050      -0.07133391      -2.71146982       0.00000000
Si       2.52973926      -2.77922061       0.13297994       0.00000000
Si       2.63715552       2.71231758       0.05651475       0.00000000
