10
Lattice="16.28999089631971 0.0 0.0 0.0 16.28999089631971 0.0 0.0 0.0 34.397273925272025" Properties=species:S:1:pos:R:3:initial_magmoms:R:1 pbc="T T T"
Si       2.26110087       0.28409760      -0.42618246       0.00000000
Si      -0.41125734      -0.05383845       2.30073175       0.00000000
Si      -0.51197841      -2.19484944      -0.72719317       0.00000000
Si      -1.26395739       1.84270851      -0.82680774       0.00000000
Si       2.55401136       1.53683118       1.55018281       0.00000000
Si      -2.69356779       0.39742713       2.20073882       0.00000000
Si       0.29783007      -2.28604086       2.64745646       0.00000000
Si      -2.66346387       0.55175859      -2.21969172       0.00000000
Si      -1.73916927      -1.61373627      -2.64411992       0.00000000
Si       3.05619948      -1.95527241      -0.18271842       0.00000000
