10
Lattice="16.28999089631971 0.0 0.0 0.0 16.28999089631971 0.0 0.0 0.0 34.397273925272025" Properties=species:S:1:pos:R:3:initial_magmoms:R:1 pbc="T T T"
Si      -0.19248264      -0.49425489       2.31046618       0.00000000
Si      -1.68899607       1.61772732      -0.51661295       0.00000000
Si       1.87945875      -0.56101131      -1.47399281       0.00000000
Si      -1.08580995      -2.15168094      -0.72344387       0.00000000
Si       1.70737119       1.74638574       0.67982810       0.00000000
Si       2.98167273       1.49890806      -1.22574754       0.00000000
Si      -3.15428157       0.36916398      -1.91400298       0.00000000
Si       2.97554769       0.47951244       2.21343142       0.00000000
Si      -0.67455261      -2.09784249      -3.02417562       0.00000000
Si       2.95759611      -2.31124149      -0.33382573       0.00000000
