10
Lattice="16.28999089631971 0.0 0.0 0.0 16.28999089631971 0.0 0.0 0.0 34.397273925272025" Properties=species:S:1:pos:R:3:initial_magmoms:R:1 pbc="T T T"
Si      -1.34622189      -1.36847403       1.34256075       0.00000000
Si       1.35793440      -1.35438318      -1.36134167       0.00000000
Si      -1.35441576       1.35840681      -1.36209841       0.00000000
Si       1.38403098       1.36619343       1.37076653       0.00000000
Si       0.04142547      -2.65018752       2.76722784       0.00000000
Si      -2.71265967      -2.71389771      -0.00736102       0.00000000
Si       2.71321353      -2.71409319      -0.00048156       0.00000000
Si       2.71459818       2.71570590      -0.00364611       0.00000000
Si      -2.71565703       2.71590138      -0.00151348       0.00000000
Si       0.00063531      -2.71383255      -2.71917482       0.00000000
