10
Lattice="16.28999089631971 0.0 0.0 0.0 16.28999089631971 0.0 0.0 0.0 34.397273925272025" Properties=species:S:1:pos:R:3:initial_magmoms:R:1 pbc="T T T"
Si       0.89262684       1.23895224       1.78515072       0.00000000
Si       0.51774507      -2.31521625      -0.25918360       0.00000000
Si      -2.61744462       0.51844554       0.66221669       0.00000000
Si      -0.27735354      -1.48646250      -2.49043282       0.00000000
Si       2.82354570      -0.21071115       1.72805121       0.00000000
Si      -2.19745584       0.05989833      -2.73090429       0.00000000
Si      -3.37471785      -1.02169251      -0.81304882       0.00000000
Si       2.26224117       1.33441164      -2.51994570       0.00000000
Si      -0.66622842       0.72022977       3.55031661       0.00000000
Si      -0.89345763       3.50248032      -0.77215044       0.00000000
