10
Lattice="16.28999089631971 0.0 0.0 0.0 16.28999089631971 0.0 0.0 0.0 34.397273925272025" Properties=species:S:1:pos:R:3:initial_magmoms:R:1 pbc="T T T"
Si      -1.55742174      -1.11977460      -1.31826918       0.00000000
Si       1.25810928       1.41530617      -1.38412097       0.00000000
Si      -1.34698752       1.32568020       1.39453850       0.00000000
Si       1.36060596      -1.37329587       1.39079263       0.00000000
Si       0.15180651      -2.42307234      -2.70631853       0.00000000
Si      -2.67807600       2.56968790      -0.10842027       0.00000000
Si       2.66028732      -0.08000019      -2.59280746       0.00000000
Si       2.74704786       2.66852096      -0.06556124       0.00000000
Si      -0.00022806       2.68607343       2.75471410       0.00000000
Si      -2.71321353      -0.02870298       2.75519566       0.00000000
