10
Lattice="16.28999089631971 0.0 0.0 0.0 16.28999089631971 0.0 0.0 0.0 34.397273925272025" Properties=species:S:1:pos:R:3:initial_magmoms:R:1 pbc="T T T"
Si       1.32100497      -0.80096301       1.80214298       0.00000000
Si       1.28669823       1.56963924      -1.26148633       0.00000000
Si      -0.27899883      -2.06962821      -1.21707942       0.00000000
Si      -2.05814376       1.10872998       0.61557396       0.00000000
Si       0.91787634       1.00530477      -3.47949259       0.00000000
Si      -3.03990948      -0.40213494       2.16658230       0.00000000
Si       2.97466803      -2.19172176       0.86419759       0.00000000
Si       1.69648947      -2.30938443      -2.58691723       0.00000000
Si       2.88380241       0.84755241       2.44822734       0.00000000
Si       3.41485641      -1.36925595      -1.26076399       0.00000000
