10
Lattice="16.28999089631971 0.0 0.0 0.0 16.28999089631971 0.0 0.0 0.0 34.397273925272025" Properties=species:S:1:pos:R:3:initial_magmoms:R:1 pbc="T T T"
Si      -1.12601367       0.84646098      -1.86275632       0.00000000
Si       0.69151050       1.89643293       1.21120392       0.00000000
Si      -1.86171568      -0.82710846       1.24509557       0.00000000
Si       1.69987779      -1.74944826      -0.29534046       0.00000000
Si       2.09166858       0.60683508       2.68102089       0.00000000
Si      -0.61581087      -2.11844934       2.71825252       0.00000000
Si       0.85737528      -3.35378520       1.32219710       0.00000000
Si      -3.12941977      -0.36062802      -2.03563711       0.00000000
Si       3.49591545      -0.76383810       1.22282332       0.00000000
Si      -2.84251540      -2.70637173      -0.00915498       0.00000000
