10
Lattice="16.28999089631971 0.0 0.0 0.0 16.28999089631971 0.0 0.0 0.0 34.397273925272025" Properties=species:S:1:pos:R:3:initial_magmoms:R:1 pbc="T T T"
Si       1.35714464       1.35782037       1.35656045       0.00000000
Si      -1.35823124      -1.35762489       1.35693882       0.00000000
Si      -1.35720497       1.35684297      -1.36141047       0.00000000
Si       1.35945945      -1.35840681      -1.36041294       0.00000000
Si       2.71399902      -2.71419093       0.00041277       0.00000000
Si       2.71528593       0.00024435       2.71356806       0.00000000
Si      -0.00096215      -2.71425609       2.71473757       0.00000000
Si      -0.00101045       2.71505430       2.71422161       0.00000000
Si      -2.71548146       0.00035838       2.71418721       0.00000000
Si      -2.71587242      -2.71586880      -0.00024078       0.00000000
