10
Lattice="16.28999089631971 0.0 0.0 0.0 16.28999089631971 0.0 0.0 0.0 34.397273925272025" Properties=species:S:1:pos:R:3:initial_magmoms:R:1 pbc="T T T"
Si      -1.23168690      -1.55737680       1.28659635       0.00000000
Si      -1.41626889       1.17565582      -1.53174586       0.00000000
Si       0.72293391       2.02955807       1.10532262       0.00000000
Si       1.32235704      -1.53323502      -1.51169224       0.00000000
Si       2.65606821       2.61920720      -0.16538219       0.00000000
Si      -2.82392037       2.53822961      -0.06690274       0.00000000
Si      -0.04570974       2.53982603      -2.90894468       0.00000000
Si      -2.67950952      -2.81537205      -0.16637971       0.00000000
Si       2.67053826      -0.18100212      -2.91135249       0.00000000
Si      -1.00944243       3.70763984       0.98166435       0.00000000
