10
Lattice="16.28999089631971 0.0 0.0 0.0 16.28999089631971 0.0 0.0 0.0 34.397273925272025" Properties=species:S:1:pos:R:3:initial_magmoms:R:1 pbc="T T T"
Si      -1.03480596      -2.07852369       0.39983414       0.00000000
Si      -0.88477506       1.19824353      -1.82739060       0.00000000
Si      -0.53164044       1.26991953       1.91630760       0.00000000
Si       2.24949329      -0.70553293      -0.11010574       0.00000000
Si       2.63706497       0.93937914      -1.94616445       0.00000000
Si       0.18379227      -0.29942649       3.53800238       0.00000000
Si      -0.14009400      -2.45385134       2.57800833       0.00000000
Si      -2.71041165       1.98276993       1.52851252       0.00000000
Si      -2.29211703       2.91879333      -0.75230320       0.00000000
Si      -3.38160852      -1.85329701       0.68994091       0.00000000
