10
Lattice="16.28999089631971 0.0 0.0 0.0 16.28999089631971 0.0 0.0 0.0 34.397273925272025" Properties=species:S:1:pos:R:3:initial_magmoms:R:1 pbc="T T T"
Si      -2.30985684      -0.31885394      -0.44516977       0.00000000
Si       0.81552857      -2.22132788       0.41249234       0.00000000
Si       0.08141742       0.89501170       2.23265950       0.00000000
Si       0.80650554       1.36893015      -1.87929611       0.00000000
Si      -2.04639867      -2.26607651      -1.70971746       0.00000000
Si       2.72721383      -2.16473642      -0.93385211       0.00000000
Si      -0.52168725      -1.43530280      -3.40505684       0.00000000
Si       0.02003670       3.20489460       2.02644773       0.00000000
Si      -0.76196475      -3.73699835      -0.43099808       0.00000000
Si      -3.12512247       1.56198294      -1.59111559       0.00000000
