10
Lattice="16.28999089631971 0.0 0.0 0.0 16.28999089631971 0.0 0.0 0.0 34.397273925272025" Properties=species:S:1:pos:R:3:initial_magmoms:R:1 pbc="T T T"
Si      -1.78743654       0.85996539      -1.37097291       0.00000000
Si       1.40413284      -1.44536935      -1.39023540       0.00000000
Si      -1.17573075      -1.39051440       1.64767303       0.00000000
Si       1.50327378       1.32890562       1.62354677       0.00000000
Si      -2.64824901       2.57077377       0.06566443       0.00000000
Si      -3.47737743      -0.85333536      -1.12857519       0.00000000
Si      -2.66466933      -2.64372919       0.32911330       0.00000000
Si       2.85562804      -2.66354190       0.11230716       0.00000000
Si       0.13061322      -3.07723706      -2.43505318       0.00000000
Si       3.37510785       2.09864070       0.39708235       0.00000000
