10
Lattice="16.28999089631971 0.0 0.0 0.0 16.28999089631971 0.0 0.0 0.0 34.397273925272025" Properties=species:S:1:pos:R:3:initial_magmoms:R:1 pbc="T T T"
Si       1.35169251      -1.35591444       1.35501257       0.00000000
Si       1.35542889       1.35826020      -1.35803953       0.00000000
Si      -1.35904212      -1.35643572      -1.35807393       0.00000000
Si      -1.36158336       1.35788553       1.36072252       0.00000000
Si      -0.00102627      -2.69154783       2.72013794       0.00000000
Si       2.71491976      -2.71228500      -0.00024078       0.00000000
Si      -2.71560816      -2.71305063      -0.00130710       0.00000000
Si       2.71358398       0.00102627      -2.71570069       0.00000000
Si      -0.00179190      -2.71441899      -2.71532232       0.00000000
Si       2.71430074       2.71572219       0.00182306       0.00000000
