10
Lattice="16.28999089631971 0.0 0.0 0.0 16.28999089631971 0.0 0.0 0.0 34.397273925272025" Properties=species:S:1:pos:R:3:initial_magmoms:R:1 pbc="T T T"
Si      -1.35271878      -1.33563339       1.36512537       0.00000000
Si      -1.35169251       1.35591444      -1.35501257       0.00000000
Si       1.36322725      -1.35637056      -1.35525335       0.00000000
Si       1.37267219       1.34925183       1.35576931       0.00000000
Si       2.55017692      -0.15486903       2.77414169       0.00000000
Si      -2.50179909       0.25339095       2.85745194       0.00000000
Si      -0.01249161      -2.63285496       2.75140508       0.00000000
Si      -2.71073463      -0.00052128      -2.71308650       0.00000000
Si      -2.71426956      -2.71223613       0.00784258       0.00000000
Si      -2.71327587       2.71379997       0.00570995       0.00000000
