10
Lattice="16.28999089631971 0.0 0.0 0.0 16.28999089631971 0.0 0.0 0.0 34.397273925272025" Properties=species:S:1:pos:R:3:initial_magmoms:R:1 pbc="T T T"
Si      -1.25591013       1.46829915      -1.31098403       0.00000000
Si       1.35058761       1.36096434       1.36119376       0.00000000
Si      -1.36231641      -1.35176049       1.36360157       0.00000000
Si       1.41102351      -1.30333032      -1.44324851       0.00000000
Si       2.54332512       0.55794879      -2.59044329       0.00000000
Si      -2.62770732       0.25068681      -2.70108538       0.00000000
Si      -0.00764001      -2.70638802       2.72133153       0.00000000
Si       2.70824146       0.00832419       2.72184749       0.00000000
Si      -2.70713736      -2.72538216       0.00278618       0.00000000
Si       2.72285581      -2.71298547      -0.02341768       0.00000000
