10
Lattice="16.28999089631971 0.0 0.0 0.0 16.28999089631971 0.0 0.0 0.0 34.397273925272025" Properties=species:S:1:pos:R:3:initial_magmoms:R:1 pbc="T T T"
Si       1.48388868       1.07650836       1.51815893       0.00000000
Si      -1.93091886       1.44966339       0.05709951       0.00000000
Si      -0.92717793      -1.47165489       1.68037656       0.00000000
Si       1.82333970       0.77025636      -1.42308481       0.00000000
Si      -2.82354570       0.21071115      -1.72805121       0.00000000
Si       2.95492455      -1.34622189      -1.66513856       0.00000000
Si      -2.30580063      -2.10450510      -1.98723482       0.00000000
Si       0.33497127       3.01075038       2.21150517       0.00000000
Si       3.18257730       2.02851225       0.08399819       0.00000000
Si      -2.43781479      -2.95088463       0.42067890       0.00000000
