10
Lattice="16.28999089631971 0.0 0.0 0.0 16.28999089631971 0.0 0.0 0.0 34.397273925272025" Properties=species:S:1:pos:R:3:initial_magmoms:R:1 pbc="T T T"
Si       1.33840336       1.34245890       1.36994443       0.00000000
Si      -1.37345877      -1.37424069       1.36578236       0.00000000
Si       1.55332385      -1.14165207      -1.39442843       0.00000000
Si      -1.28689371       1.44295191      -1.40100863       0.00000000
Si      -0.18072126      -2.17725624      -2.58585469       0.00000000
Si      -2.27092374      -0.15242553      -2.84367036       0.00000000
Si       2.70295802       2.70892926      -0.02117841       0.00000000
Si       2.69696330      -0.01319490       2.72574814       0.00000000
Si      -0.01563840       2.70225036       2.72588573       0.00000000
Si      -2.73269637       2.70647117      -0.00218423       0.00000000
