10
Lattice="16.28999089631971 0.0 0.0 0.0 16.28999089631971 0.0 0.0 0.0 34.397273925272025" Properties=species:S:1:pos:R:3:initial_magmoms:R:1 pbc="T T T"
Si      -1.33056720      -1.34951247       1.37441264       0.00000000
Si       1.35938421      -1.35527913      -1.35986259       0.00000000
Si      -1.35580041       1.35928647      -1.35962181       0.00000000
Si       1.36568844       1.36109466       1.40254963       0.00000000
Si      -2.63617812       0.07895763       2.74786216       0.00000000
Si       2.70976005      -2.70547578       0.00048156       0.00000000
Si      -2.71160082       2.71280477      -0.00144469       0.00000000
Si       2.71386966       2.71332756       0.00288937       0.00000000
Si       0.00105885      -2.71283886      -2.71611346       0.00000000
Si      -2.71368594       0.00118917      -2.71563190       0.00000000
