10
Lattice="16.28999089631971 0.0 0.0 0.0 16.28999089631971 0.0 0.0 0.0 34.397273925272025" Properties=species:S:1:pos:R:3:initial_magmoms:R:1 pbc="T T T"
Si      -0.36882189      -0.56433447      -2.21800626       0.00000000
Si       2.30409018      -0.58536486      -0.03536042       0.00000000
Si      -1.28669823      -1.56963924       1.26148633       0.00000000
Si      -0.47581461       2.35340231       0.08874502       0.00000000
Si       2.12815818      -2.93889519       0.00072234       0.00000000
Si       0.51979761       1.26051110      -3.37526879       0.00000000
Si       3.12181560       0.10868688       2.01437428       0.00000000
Si      -3.34484199      -0.46090926       1.87706029       0.00000000
Si       1.01740824       3.38699141       1.57343538       0.00000000
Si       0.03430674      -2.37060225       3.06362931       0.00000000
