10
Lattice="16.28999089631971 0.0 0.0 0.0 16.28999089631971 0.0 0.0 0.0 34.397273925272025" Properties=species:S:1:pos:R:3:initial_magmoms:R:1 pbc="T T T"
Si       1.65366306      -1.39075875      -0.93794539       0.00000000
Si       1.56279744       1.64851542       0.64608436       0.00000000
Si      -1.32100497       0.80096301      -1.80214298       0.00000000
Si      -1.30087053      -1.32962238       1.51045394       0.00000000
Si       2.84723136       0.17759358       1.92480373       0.00000000
Si      -2.83845105       0.28294101       2.25085567       0.00000000
Si      -1.60000380      -1.26866520      -3.01922241       0.00000000
Si       2.09385144      -0.56829294      -3.06290697       0.00000000
Si      -2.48878620      -2.88466578       0.09662200       0.00000000
Si       3.65726790      -1.22549670       0.25350805       0.00000000
