10
Lattice="16.28999089631971 0.0 0.0 0.0 16.28999089631971 0.0 0.0 0.0 34.397273925272025" Properties=species:S:1:pos:R:3:initial_magmoms:R:1 pbc="T T T"
Si       1.35668599       1.35610992       1.35656045       0.00000000
Si      -1.35765385       1.35264015      -1.36065373       0.00000000
Si       1.35269168      -1.35718506      -1.36196082       0.00000000
Si      -1.35864754      -1.35826020       1.35666364       0.00000000
Si       2.71276822       2.71368594      -0.00068795       0.00000000
Si      -0.00145871       2.71308321       2.71370565       0.00000000
Si       2.71403884      -0.00109143       2.71377444       0.00000000
Si      -2.71573486       0.00017919       2.71349926       0.00000000
Si      -2.71485520       2.71492398      -0.00161667       0.00000000
Si      -2.70824146      -0.00832419      -2.72184749       0.00000000
