10
Lattice="16.28999089631971 0.0 0.0 0.0 16.28999089631971 0.0 0.0 0.0 34.397273925272025" Properties=species:S:1:pos:R:3:initial_magmoms:R:1 pbc="T T T"
Si       0.67774545       1.18203498      -1.85425488       0.00000000
Si       0.86744739       0.82554462       1.99469903       0.00000000
Si       0.47882174      -2.29019481      -0.11382064       0.00000000
Si      -2.26082135       0.61284609       0.16459105       0.00000000
Si      -2.70100973      -0.20961972       2.28955263       0.00000000
Si      -0.69740489      -0.04435767       3.48100607       0.00000000
Si      -1.75399058      -3.12036579       0.08671558       0.00000000
Si       0.87371741      -2.50452234      -2.47182388       0.00000000
Si      -2.08488935       2.96637642       0.12850829       0.00000000
Si      -1.19201816       1.08357822      -3.28961953       0.00000000
