10
Lattice="16.28999089631971 0.0 0.0 0.0 16.28999089631971 0.0 0.0 0.0 34.397273925272025" Properties=species:S:1:pos:R:3:initial_magmoms:R:1 pbc="T T T"
Si      -0.47882174       2.29019481       0.11382064       0.00000000
Si      -2.23281233      -0.83017098       0.20053622       0.00000000
Si       0.39489566      -0.21432753      -2.35800324       0.00000000
Si       1.78168617      -0.83893500       1.37300235       0.00000000
Si      -1.61040401       0.98067429      -3.17524853       0.00000000
Si      -1.97885123      -3.14245503       0.31053876       0.00000000
Si      -3.30909263       0.02867040      -1.74108779       0.00000000
Si       0.38862564       3.11573943       2.10851967       0.00000000
Si       1.40268303      -3.17296620       1.67036695       0.00000000
Si       0.19892371       3.47222979      -1.74043424       0.00000000
