10
Lattice="16.28999089631971 0.0 0.0 0.0 16.28999089631971 0.0 0.0 0.0 34.397273925272025" Properties=species:S:1:pos:R:3:initial_magmoms:R:1 pbc="T T T"
Si      -1.35595079      -1.35534429       1.35604449       0.00000000
Si      -1.35668384       1.35852084      -1.35676683       0.00000000
Si       1.35814470      -1.35697329      -1.35714520       0.00000000
Si       1.35695390       1.35843939       1.35797074       0.00000000
Si      -0.00557495      -2.70554094       2.71638864       0.00000000
Si       0.00145871      -2.71308321      -2.71370565       0.00000000
Si      -2.71427615      -2.71290402      -0.00020638       0.00000000
Si       2.71422693       0.00060273      -2.71439359       0.00000000
Si      -2.71339649       0.00184077      -2.71532232       0.00000000
Si       2.71549755      -2.71417464       0.00006879       0.00000000
