10
Lattice="16.28999089631971 0.0 0.0 0.0 16.28999089631971 0.0 0.0 0.0 34.397273925272025" Properties=species:S:1:pos:R:3:initial_magmoms:R:1 pbc="T T T"
Si       0.55687039      -0.89518437       2.08626462       0.00000000
Si      -1.10728457      -1.60259391      -1.32897382       0.00000000
Si       1.58483455       1.21810578      -1.34947460       0.00000000
Si      -1.85698899      -0.63464211       2.46859054       0.00000000
Si      -2.52627993      -0.19872171      -2.82649437       0.00000000
Si       0.18482145       2.51029130      -2.84383061       0.00000000
Si      -1.99737621      -3.32819361       0.09552128       0.00000000
Si       2.64586741       2.88275075       0.02689868       0.00000000
Si       1.48888645      -3.08721564       1.92989453       0.00000000
Si       2.90121316      -0.20673639      -2.83306426       0.00000000
