10
Lattice="10.86 0.0 0.0 0.0 10.86 0.0 0.0 0.0 10.86" Properties=species:S:1:pos:R:3:initial_magmoms:R:1 pbc="T T T"
Si      -1.26460356      -1.41001896       1.21767750       0.00000000
Si       1.45039644       1.30498104       1.21767750       0.00000000
Si       1.45039644      -1.41001896      -1.49732250       0.00000000
Si      -2.70392280      -0.15862116       2.63038974       0.00000000
Si       0.09289644      -2.76751896       2.57517750       0.00000000
Si       0.34123206       2.58411528       2.75893956       0.00000000
Si       2.80789644      -0.05251896       2.57517750       0.00000000
Si      -2.62210356      -2.76751896      -0.13982250       0.00000000
Si       2.80789644       2.66248104      -0.13982250       0.00000000
Si       2.80789644      -2.76751896      -0.13982250       0.00000000
