10
Lattice="16.28999089631971 0.0 0.0 0.0 16.28999089631971 0.0 0.0 0.0 34.474598006748145" Properties=species:S:1:pos:R:3:initial_magmoms:R:1 pbc="T T T"
Si       0.13346397      -0.61397010      -2.24564209       0.00000000
Si       2.12791383      -0.87187338       0.45072115       0.00000000
Si      -0.42140601       2.28914315      -0.54318207       0.00000000
Si      -1.53577233      -0.48633795       1.82122508       0.00000000
Si      -2.18612614      -1.09587717      -2.01890254       0.00000000
Si      -0.76861107       1.46100353       2.99281047       0.00000000
Si       1.66074921       1.11424644      -2.97129831       0.00000000
Si       1.52396208      -3.14235729       0.79946637       0.00000000
Si       1.78210971       2.83410881      -1.39629095       0.00000000
Si       3.05471709       0.79353055       1.85501021       0.00000000
