10
Lattice="16.28999089631971 0.0 0.0 0.0 16.28999089631971 0.0 0.0 0.0 34.474598006748145" Properties=species:S:1:pos:R:3:initial_magmoms:R:1 pbc="T T T"
Si      -1.42628724       1.16641287      -1.39132660       0.00000000
Si      -1.88305884      -0.83499282       1.30855305       0.00000000
Si       1.30344435      -1.56704750      -1.35392164       0.00000000
Si       0.85359600       1.89242559       1.42900736       0.00000000
Si      -0.05435973       2.50141095      -2.73731909       0.00000000
Si      -2.73593808       2.51590905       0.07901582       0.00000000
Si       2.70010008       2.59960707       0.00448170       0.00000000
Si       2.66761782      -0.21515832      -2.73552641       0.00000000
Si       2.53733040      -2.94590708       0.18581819       0.00000000
Si      -2.76644925      -0.21370851      -2.73562983       0.00000000
