10
Lattice="16.28999089631971 0.0 0.0 0.0 16.28999089631971 0.0 0.0 0.0 34.474598006748145" Properties=species:S:1:pos:R:3:initial_magmoms:R:1 pbc="T T T"
Si      -1.33631757       1.36894644       1.29497005       0.00000000
Si       1.33938009       1.36855548      -1.36571196       0.00000000
Si      -1.37629323      -1.34377839      -1.36726332       0.00000000
Si       1.39584123      -1.07614998       1.65964255       0.00000000
Si       2.68275123      -2.67380802       0.01423802       0.00000000
Si      -0.09480780       2.54646909       2.86453042       0.00000000
Si       2.69606016       0.01747917      -2.72649406       0.00000000
Si      -0.01910817      -2.69928558      -2.72666643       0.00000000
Si      -2.72461653      -2.70438435       0.01420354       0.00000000
Si      -2.83918410       0.20758347       2.58580314       0.00000000
