10
Lattice="16.28999089631971 0.0 0.0 0.0 16.28999089631971 0.0 0.0 0.0 34.474598006748145" Properties=species:S:1:pos:R:3:initial_magmoms:R:1 pbc="T T T"
Si      -0.12906567       2.23298433       0.77747157       0.00000000
Si      -0.70403751      -0.00487071      -2.26680951       0.00000000
Si       2.02298994      -1.08822087       0.62692092       0.00000000
Si      -1.43891199      -0.92238867       1.68894597       0.00000000
Si       3.19380111       0.79457733       1.42131952       0.00000000
Si      -0.55713429      -0.04220739       3.69274863       0.00000000
Si      -0.91364094      -3.20173434       1.70163263       0.00000000
Si      -3.10578624       0.20774637      -2.07671647       0.00000000
Si       0.15126894       2.14159743       3.12898521       0.00000000
Si       1.42703658      -2.98913355       1.90182674       0.00000000
