10
Lattice="16.28999089631971 0.0 0.0 0.0 16.28999089631971 0.0 0.0 0.0 34.474598006748145" Properties=species:S:1:pos:R:3:initial_magmoms:R:1 pbc="T T T"
Si       0.70403751       0.00487071       2.26680951       0.00000000
Si       0.51246711      -2.05493463      -1.08681231       0.00000000
Si      -2.40174873       0.21261708       0.19009304       0.00000000
Si       0.80407440       1.92731877      -1.35754148       0.00000000
Si      -1.06820046       1.90172718      -2.89966006       0.00000000
Si       3.25809774       1.54719162      -0.41590178       0.00000000
Si      -2.92770396       1.71914886      -1.54577289       0.00000000
Si      -0.92976804      -2.21623821      -2.90934743       0.00000000
Si       2.54325996      -1.71453879      -2.25822533       0.00000000
Si       0.57497184       2.23785504       3.04428108       0.00000000
