10
Lattice="16.28999089631971 0.0 0.0 0.0 16.28999089631971 0.0 0.0 0.0 34.474598006748145" Properties=species:S:1:pos:R:3:initial_magmoms:R:1 pbc="T T T"
Si      -0.88177770      -0.88018128      -2.00380265       0.00000000
Si       0.70840323       2.18380482      -0.56376342       0.00000000
Si       2.25139203      -0.44812161       0.59530769       0.00000000
Si      -1.52164890      -0.25270677       1.80422909       0.00000000
Si      -1.34923554       1.91770767       2.63510185       0.00000000
Si      -0.65324529       3.43934028       0.86196886       0.00000000
Si       0.42806862       2.27519172      -2.91527706       0.00000000
Si       0.55713429       0.04220739      -3.69274863       0.00000000
Si      -0.35650665      -3.15952695      -1.99111600       0.00000000
Si       3.02560686       2.18308806      -0.43241512       0.00000000
