10
Lattice="16.28999089631971 0.0 0.0 0.0 16.28999089631971 0.0 0.0 0.0 34.474598006748145" Properties=species:S:1:pos:R:3:initial_magmoms:R:1 pbc="T T T"
Si      -1.34939844      -1.34747622       1.36110615       0.00000000
Si       1.32792822      -1.33731126      -1.40263428       0.00000000
Si       1.36459701       1.36357074       1.35883083       0.00000000
Si      -1.37106414       1.26697104      -1.50500321       0.00000000
Si       2.33495973       0.45862866      -2.73659654       0.00000000
Si       0.33278841       2.09266227      -3.05100505       0.00000000
Si      -2.68643277       2.72493898      -0.01503783       0.00000000
Si      -2.71028133      -2.71596654      -0.02857256       0.00000000
Si      -2.70625770       0.00643455       2.72219852       0.00000000
Si       0.00739566      -2.70798444       2.72250879       0.00000000
