10
Lattice="16.28999089631971 0.0 0.0 0.0 16.28999089631971 0.0 0.0 0.0 34.474598006748145" Properties=species:S:1:pos:R:3:initial_magmoms:R:1 pbc="T T T"
Si      -1.09721295       2.03417140       0.40804157       0.00000000
Si       0.99044829      -0.68869885       2.01900596       0.00000000
Si       1.99148508       0.17651355      -1.28217997       0.00000000
Si      -1.70144163      -1.41626956      -1.11818421       0.00000000
Si       2.44108908      -2.17513921      -1.54191173       0.00000000
Si      -3.24855994       1.28253451       0.94446661       0.00000000
Si      -1.32294348       2.94849652      -1.77726994       0.00000000
Si      -0.53683695      -2.41691539       2.74466218       0.00000000
Si      -1.94595453      -0.13281889      -3.15156609       0.00000000
Si       1.11180879       1.03116352       3.59401333       0.00000000
