10
Lattice="16.28999089631971 0.0 0.0 0.0 16.28999089631971 0.0 0.0 0.0 34.474598006748145" Properties=species:S:1:pos:R:3:initial_magmoms:R:1 pbc="T T T"
Si      -1.41977124      -1.00139517      -1.54884113       0.00000000
Si       2.12762061      -0.50816655      -0.86755374       0.00000000
Si      -0.01690902      -1.08642897       2.10188294       0.00000000
Si      -0.44960400       2.35165276       0.25973177       0.00000000
Si      -3.33694134      -1.34086248      -0.28944889       0.00000000
Si      -2.44108908       2.17513921       1.54191173       0.00000000
Si       0.77846652       0.60295806       3.49214083       0.00000000
Si       1.64529000      -2.69794980       2.04534457       0.00000000
Si       3.18016638       1.66568412      -1.33716698       0.00000000
Si       1.71237222      -2.60973945      -2.23743714       0.00000000
