10
Lattice="16.28999089631971 0.0 0.0 0.0 16.28999089631971 0.0 0.0 0.0 34.474598006748145" Properties=species:S:1:pos:R:3:initial_magmoms:R:1 pbc="T T T"
Si      -0.79537554      -1.68938703      -1.39025789       0.00000000
Si       0.05908383      -1.34169327       1.93902485       0.00000000
Si      -2.22910731       0.88348230       0.06877686       0.00000000
Si       2.32181370       0.73284216      -0.24252893       0.00000000
Si       1.24346457      -3.13272990       0.86314099       0.00000000
Si       2.81828403       0.63075924       2.13328932       0.00000000
Si      -0.77846652      -0.60295806      -3.49214083       0.00000000
Si      -2.55347379      -2.68301187      -0.09370201       0.00000000
Si       0.86682348      -3.30090786      -1.44679626       0.00000000
Si      -2.10774681       2.60334467       1.64378423       0.00000000
