10
Lattice="16.28999089631971 0.0 0.0 0.0 16.28999089631971 0.0 0.0 0.0 34.474598006748145" Properties=species:S:1:pos:R:3:initial_magmoms:R:1 pbc="T T T"
Si       0.75408039      -0.93152736      -2.01828199       0.00000000
Si       0.40687533      -1.75966698       1.51771055       0.00000000
Si       1.40240610       1.90363311      -0.23777144       0.00000000
Si      -2.21587073       0.90459999       0.00141346       0.00000000
Si      -1.30883960      -0.74604942      -3.22303197       0.00000000
Si      -2.42886248       1.13992533      -2.35771908       0.00000000
Si       0.52290900       3.31683948       1.40446143       0.00000000
Si      -1.82919921       3.00555387       0.99514430       0.00000000
Si       1.17548640      -3.22067051      -1.47509992       0.00000000
Si      -0.36028593      -3.70700846       0.34612516       0.00000000
