10
Lattice="16.28999089631971 0.0 0.0 0.0 16.28999089631971 0.0 0.0 0.0 34.474598006748145" Properties=species:S:1:pos:R:3:initial_magmoms:R:1 pbc="T T T"
Si       1.34431596       1.36845774       1.39167824       0.00000000
Si      -1.37042883      -1.35037584       1.39440174       0.00000000
Si      -1.31856147       1.39558059      -1.43199976       0.00000000
Si       1.25713188      -1.52000361      -1.62097927       0.00000000
Si       2.67559992      -2.69858511       0.02907934       0.00000000
Si      -2.71327869      -2.69988831       0.01960571       0.00000000
Si       2.69998605       2.72378574       0.00587792       0.00000000
Si      -2.72187981       2.72041371       0.01606172       0.00000000
Si       2.70322776       0.01107720       2.75239139       0.00000000
Si      -0.01265733      -2.70487305       2.75287403       0.00000000
