10
Lattice="16.28999089631971 0.0 0.0 0.0 16.28999089631971 0.0 0.0 0.0 34.474598006748145" Properties=species:S:1:pos:R:3:initial_magmoms:R:1 pbc="T T T"
Si       0.22001274      -2.31619365      -0.23142811       0.00000000
Si       1.29388212       0.87314400      -1.76899604       0.00000000
Si      -2.36219661       0.09269010       0.16165148       0.00000000
Si       0.30299400       1.72677258       1.59493369       0.00000000
Si       0.21387141      -2.46780468      -2.58997457       0.00000000
Si      -3.07014372      -0.11619657      -2.03886334       0.00000000
Si      -2.80292256       2.38260798       0.34736624       0.00000000
Si       0.89498889       3.14869410      -1.97515425       0.00000000
Si       0.99662220       3.71027556       0.33643779       0.00000000
Si       2.25008883      -3.09475791       0.69518066       0.00000000
