10
Lattice="16.28999089631971 0.0 0.0 0.0 16.28999089631971 0.0 0.0 0.0 34.474598006748145" Properties=species:S:1:pos:R:3:initial_magmoms:R:1 pbc="T T T"
Si      -1.35749457      -1.35803214       1.35592117       0.00000000
Si       1.35778779      -1.35751086      -1.35774833       0.00000000
Si      -1.35785295       1.35811359      -1.35736911       0.00000000
Si       1.36029645       1.35772263       1.35764490       0.00000000
Si       2.71458189       0.00068418       2.71284211       0.00000000
Si       0.00029322      -2.71407690      -2.71477269       0.00000000
Si       2.71503801      -2.71417464       0.00034475       0.00000000
Si      -2.71494027      -2.71448415      -0.00013790       0.00000000
Si      -0.00127062       2.71463076      -2.71484164       0.00000000
Si       0.00089595      -2.71339272       2.71642747       0.00000000
