10
Lattice="16.28999089631971 0.0 0.0 0.0 16.28999089631971 0.0 0.0 0.0 34.474598006748145" Properties=species:S:1:pos:R:3:initial_magmoms:R:1 pbc="T T T"
Si       0.99074151       1.80245592      -1.09008740       0.00000000
Si       0.57389670      -0.07411950       2.30924776       0.00000000
Si       1.43638704      -1.74109149      -0.83752635       0.00000000
Si      -2.43706545       0.07327242       0.47188856       0.00000000
Si       3.18967974      -0.73487448       0.31361559       0.00000000
Si       0.58160187       0.65651958      -3.18304141       0.00000000
Si       0.38133261      -3.48083091       0.44334358       0.00000000
Si       3.21675372       1.61259597      -0.21339788       0.00000000
Si       0.88467732       2.20822353       2.83219323       0.00000000
Si      -2.56842801      -1.67985738       2.15335354       0.00000000
