10
Lattice="16.28999089631971 0.0 0.0 0.0 16.28999089631971 0.0 0.0 0.0 34.474598006748145" Properties=species:S:1:pos:R:3:initial_magmoms:R:1 pbc="T T T"
Si       2.19836808      -0.51882021       0.54421631       0.00000000
Si      -1.17081117      -1.88279820      -0.79439861       0.00000000
Si      -0.72532854       1.34630334       1.83901398       0.00000000
Si       0.22384089       1.34759025      -1.98191127       0.00000000
Si      -1.49954337      -1.28490633       2.86673680       0.00000000
Si      -3.19380111      -0.79457733      -1.42131952       0.00000000
Si       2.30000139       0.04276125       2.85580835       0.00000000
Si      -3.32286678       1.43840700      -0.64384795       0.00000000
Si      -0.13082499       3.54573027       1.03285953       0.00000000
Si      -3.04253217       1.34702010       1.70766569       0.00000000
