10
Lattice="16.28999089631971 0.0 0.0 0.0 16.28999089631971 0.0 0.0 0.0 34.474598006748145" Properties=species:S:1:pos:R:3:initial_magmoms:R:1 pbc="T T T"
Si      -1.35668007       1.35107631       1.36078209       0.00000000
Si       1.35607734       1.35593073      -1.35716226       0.00000000
Si      -1.35884664      -1.35936792      -1.35623144       0.00000000
Si       1.35130437      -1.35998694       1.36402271       0.00000000
Si      -2.69606016      -0.01747917       2.72649406       0.00000000
Si       2.71391400       2.71290402       0.00230980       0.00000000
Si      -0.00153126       2.71334385      -2.71453136       0.00000000
Si       2.71386513      -0.00171045      -2.71453136       0.00000000
Si      -2.71564074       2.71498914       0.00151688       0.00000000
Si      -0.00175932      -2.71648782      -2.71435899       0.00000000
