10
Lattice="16.28999089631971 0.0 0.0 0.0 16.28999089631971 0.0 0.0 0.0 34.474598006748145" Properties=species:S:1:pos:R:3:initial_magmoms:R:1 pbc="T T T"
Si       1.34587980       1.35307998      -1.38746545       0.00000000
Si      -1.35887922      -1.37399634      -1.38384561       0.00000000
Si       1.85893335      -0.89925687       1.27687087       0.00000000
Si      -1.48809150       1.32903594       1.53629237       0.00000000
Si       2.69158041       2.71534656       0.01020449       0.00000000
Si      -2.72197755       2.70789552      -0.00344746       0.00000000
Si       2.72595231      -2.71293660      -0.00851523       0.00000000
Si      -2.69825931      -2.74255182      -0.01813365       0.00000000
Si      -0.00211770       2.70280326      -2.74648933       0.00000000
Si       2.71171485      -0.01216863      -2.74231791       0.00000000
