10
Lattice="16.28999089631971 0.0 0.0 0.0 16.28999089631971 0.0 0.0 0.0 34.474598006748145" Properties=species:S:1:pos:R:3:initial_magmoms:R:1 pbc="T T T"
Si       0.99608463       1.55041445       1.51905993       0.00000000
Si      -1.73742624      -0.99351081       1.39689223       0.00000000
Si      -0.47972421       1.47586327      -2.01738565       0.00000000
Si       1.85709258      -1.74338838       0.13455443       0.00000000
Si       2.31381531       0.21988242       2.92057378       0.00000000
Si       2.26038411       3.01308704       0.17430366       0.00000000
Si      -0.42464772      -2.49127857       2.89013269       0.00000000
Si       0.60880617       3.69707156      -1.51085010       0.00000000
Si      -3.51854226      -2.04698511       0.17420024       0.00000000
Si       1.01911869      -3.71482047       1.43681039       0.00000000
