10
Lattice="16.28999089631971 0.0 0.0 0.0 16.28999089631971 0.0 0.0 0.0 34.474598006748145" Properties=species:S:1:pos:R:3:initial_magmoms:R:1 pbc="T T T"
Si      -1.35760860      -1.35688695       1.35664514       0.00000000
Si       1.35689184      -1.35831722      -1.35657619       0.00000000
Si       1.35757602       1.35816246       1.35664514       0.00000000
Si      -1.35609363       1.36163223      -1.35888599       0.00000000
Si       0.01484019      -2.71100528      -2.71317996       0.00000000
Si      -2.71415835      -2.71324367      -0.00099976       0.00000000
Si       2.71344896      -2.71432586      -0.00082739       0.00000000
Si       0.00037467      -2.71465845       2.71401424       0.00000000
Si       2.71522018       0.00000000       2.71425557       0.00000000
Si       2.71470333       2.71492398      -0.00051712       0.00000000
