10
Lattice="16.28999089631971 0.0 0.0 0.0 16.28999089631971 0.0 0.0 0.0 34.474598006748145" Properties=species:S:1:pos:R:3:initial_magmoms:R:1 pbc="T T T"
Si      -1.34570061      -1.36226658      -1.39766993       0.00000000
Si       1.38132684       1.34554585      -1.38901680       0.00000000
Si       0.94459194      -1.76182770       1.30758776       0.00000000
Si      -1.54284219       1.43331637       1.75062107       0.00000000
Si      -2.70303228       2.69093695      -0.01216954       0.00000000
Si      -2.69158041      -2.71534656      -0.01020449       0.00000000
Si       2.72442105       2.70025484       0.01406564       0.00000000
Si      -2.69369811      -0.01254330      -2.75669382       0.00000000
Si       0.01853802       2.70194899      -2.75421165       0.00000000
Si       2.72852613      -2.73499230      -0.01830602       0.00000000
