10
Lattice="16.28999089631971 0.0 0.0 0.0 16.28999089631971 0.0 0.0 0.0 34.474598006748145" Properties=species:S:1:pos:R:3:initial_magmoms:R:1 pbc="T T T"
Si      -1.61707572       0.36652500      -1.73800336       0.00000000
Si      -0.04106709      -1.78072017       1.61172283       0.00000000
Si       1.72789659      -0.68965833      -1.54049827       0.00000000
Si       0.42595092       2.13827427       1.30024467       0.00000000
Si       3.35319780       0.64620801      -0.42227959       0.00000000
Si       2.20134915       2.70982521      -0.37236034       0.00000000
Si      -1.37024964       1.48403529       3.00015357       0.00000000
Si      -0.35039790       1.68656886      -3.23716656       0.00000000
Si      -1.44689409      -0.91278246       3.26881426       0.00000000
Si       2.22394338      -1.91478834       2.51933608       0.00000000
