10
Lattice="16.28999089631971 0.0 0.0 0.0 16.28999089631971 0.0 0.0 0.0 34.474598006748145" Properties=species:S:1:pos:R:3:initial_magmoms:R:1 pbc="T T T"
Si       1.30965084      -1.34949618      -1.47034243       0.00000000
Si      -1.39299700       1.34039007      -1.43228245       0.00000000
Si       1.77401358       1.12790331       1.29486662       0.00000000
Si      -0.99613350      -1.75259223       1.44838210       0.00000000
Si       0.85287924      -3.35090187       1.22953723       0.00000000
Si       2.73593808      -2.51590905      -0.07901582       0.00000000
Si       3.58953408      -0.62348346       1.34999154       0.00000000
Si       2.68157835      -0.01449810      -2.81633491       0.00000000
Si      -0.02941974       2.70037701      -2.81099134       0.00000000
Si      -2.84569100       2.69571807      -0.02802786       0.00000000
