10
Lattice="16.28999089631971 0.0 0.0 0.0 16.28999089631971 0.0 0.0 0.0 34.474598006748145" Properties=species:S:1:pos:R:3:initial_magmoms:R:1 pbc="T T T"
Si       1.19630502      -1.33576371       1.47706498       0.00000000
Si      -1.34291502      -1.37236734      -1.35102578       0.00000000
Si       1.37077092       1.34170956      -1.35461114       0.00000000
Si      -1.28837610       1.46171799       1.40618516       0.00000000
Si       1.97069904       0.66950271       2.77155238       0.00000000
Si      -2.21868171      -0.31627035       2.76341637       0.00000000
Si      -0.53481699      -2.07414054       3.04035097       0.00000000
Si       0.42665139       2.60441262       2.66854222       0.00000000
Si       0.01648548       2.69874801      -2.70980834       0.00000000
Si      -2.70130554      -0.01700676      -2.71153207       0.00000000
