10
Lattice="16.28999089631971 0.0 0.0 0.0 16.28999089631971 0.0 0.0 0.0 34.474598006748145" Properties=species:S:1:pos:R:3:initial_magmoms:R:1 pbc="T T T"
Si      -1.63502730      -1.46315151      -0.77236933       0.00000000
Si       0.91671975      -0.43989516       2.09243690       0.00000000
Si      -0.38411820       2.35483353      -0.03778418       0.00000000
Si       1.79444680      -0.51947181      -1.52326096       0.00000000
Si      -2.57694768       0.15467355      -2.12080951       0.00000000
Si      -0.29372499      -3.31719786      -1.30165812       0.00000000
Si       2.04301102       1.49553603      -2.65147729       0.00000000
Si       0.23139945       2.90062998      -2.25053749       0.00000000
Si       2.18859149       1.56320469       2.60079960       0.00000000
Si       0.74819970       3.25524699       1.81012425       0.00000000
