10
Lattice="16.28999089631971 0.0 0.0 0.0 16.28999089631971 0.0 0.0 0.0 34.474598006748145" Properties=species:S:1:pos:R:3:initial_magmoms:R:1 pbc="T T T"
Si       1.90115703      -0.21695022       1.44069426       0.00000000
Si       1.77539823       0.57155094      -1.67260501       0.00000000
Si      -0.88029531       2.33992818       0.19219599       0.00000000
Si      -0.42595092      -2.13827427      -1.30024467       0.00000000
Si      -1.79620056      -0.65423898       1.69990890       0.00000000
Si       2.87557500       1.92963195       1.16406993       0.00000000
Si       2.92724688      -1.49206626      -1.72252425       0.00000000
Si       3.02117991      -2.10292497       0.57538136       0.00000000
Si      -0.71618985       2.68670970       2.52088744       0.00000000
Si      -0.46701801      -3.91899444       0.31147817       0.00000000
