10
Lattice="16.28999089631971 0.0 0.0 0.0 16.28999089631971 0.0 0.0 0.0 34.474598006748145" Properties=species:S:1:pos:R:3:initial_magmoms:R:1 pbc="T T T"
Si       0.79990076       1.88121807      -1.31603404       0.00000000
Si      -1.89431523      -0.80076753      -1.30496769       0.00000000
Si       1.65122675      -1.81148058      -0.16034144       0.00000000
Si      -0.37465371      -1.42970814       2.91634577       0.00000000
Si       2.01761328       0.43230402      -2.72159866       0.00000000
Si      -2.60066592      -1.23984819       2.03965626       0.00000000
Si      -0.71293185      -2.28222900      -2.71863384       0.00000000
Si       3.38958152      -0.88863579      -1.36240240       0.00000000
Si       1.96561071      -0.94938120       3.10654224       0.00000000
Si      -3.00980556      -2.38578453      -0.05329776       0.00000000
