10
Lattice="16.28999089631971 0.0 0.0 0.0 16.28999089631971 0.0 0.0 0.0 34.474598006748145" Properties=species:S:1:pos:R:3:initial_magmoms:R:1 pbc="T T T"
Si      -1.75185918      -0.61162434       1.42911078       0.00000000
Si       2.00026539      -1.20655143       0.21712114       0.00000000
Si       0.31078062       2.28234303       0.52294547       0.00000000
Si      -0.57389670       0.07411950      -2.30924776       0.00000000
Si       2.61578304      -0.66075498      -1.99563217       0.00000000
Si      -2.42748693       1.65599253       1.68642933       0.00000000
Si      -3.01096215       0.14739192      -1.83735920       0.00000000
Si      -3.14232471      -1.60573788      -0.15589422       0.00000000
Si       0.59706108       2.17422630       2.87139087       0.00000000
Si       0.86249034      -1.66697199      -3.14677412       0.00000000
