10
Lattice="16.28999089631971 0.0 0.0 0.0 16.28999089631971 0.0 0.0 0.0 34.474598006748145" Properties=species:S:1:pos:R:3:initial_magmoms:R:1 pbc="T T T"
Si       1.34879571       1.33762077      -1.38239768       0.00000000
Si      -1.37684709      -1.37212299      -1.37208977       0.00000000
Si      -0.86701896       1.81367973       1.28538611       0.00000000
Si       1.51389486      -1.23833322       1.39122318       0.00000000
Si       2.69415423       2.69329086       0.00041370       0.00000000
Si       2.69527824      -2.71979469      -0.02244298       0.00000000
Si      -0.01423746       2.70076797      -2.73380268       0.00000000
Si       2.69990460      -0.01347183      -2.73752593       0.00000000
Si      -2.72595231       2.71293660       0.00851523       0.00000000
Si      -2.74146039      -2.70342324       0.00461960       0.00000000
