10
Lattice="16.28999089631971 0.0 0.0 0.0 16.28999089631971 0.0 0.0 0.0 34.474598006748145" Properties=species:S:1:pos:R:3:initial_magmoms:R:1 pbc="T T T"
Si      -0.47811150      -0.26878500      -2.34620455       0.00000000
Si       2.26162215       0.95159079      -0.30123921       0.00000000
Si      -0.32923719       0.24121973       2.55922321       0.00000000
Si      -2.54586636      -0.05556519       0.49488313       0.00000000
Si       0.41668191      -1.86654078       1.89944799       0.00000000
Si      -2.78656740      -2.36250612      -0.09808029       0.00000000
Si      -2.25535050      -2.12156073      -2.38712592       0.00000000
Si      -1.33830495      -3.44380374       1.55790795       0.00000000
Si       3.85065693      -0.87794955      -0.86348574       0.00000000
Si       1.09302642       1.92217832       3.41591745       0.00000000
