10
Lattice="16.28999089631971 0.0 0.0 0.0 16.28999089631971 0.0 0.0 0.0 34.474598006748145" Properties=species:S:1:pos:R:3:initial_magmoms:R:1 pbc="T T T"
Si      -0.94459194       1.76182770      -1.30758776       0.00000000
Si       0.47811150       0.26878500       2.34620455       0.00000000
Si       1.78393419      -0.97316460      -1.32589378       0.00000000
Si      -1.77723900      -1.85277573      -0.04092137       0.00000000
Si      -2.06775486       0.21321981       2.84108768       0.00000000
Si      -2.29029255       0.39956112      -2.70525769       0.00000000
Si       0.43857567      -2.32883469      -2.70870515       0.00000000
Si       2.73973365       1.22037579       2.04496535       0.00000000
Si      -2.30845590      -2.09372112       2.24812427       0.00000000
Si       3.29789081      -2.22280308       0.05384935       0.00000000
