10
Lattice="16.28999089631971 0.0 0.0 0.0 16.28999089631971 0.0 0.0 0.0 34.474598006748145" Properties=species:S:1:pos:R:3:initial_magmoms:R:1 pbc="T T T"
Si       2.29341208      -0.16236243       0.39742339       0.00000000
Si      -0.97441797      -2.14658217       0.27662433       0.00000000
Si      -1.21950102       0.94933233       1.80495306       0.00000000
Si       0.17169497       0.64501884      -2.32831223       0.00000000
Si      -1.10017677      -1.35808101      -2.83667493       0.00000000
Si      -0.76142622      -2.38190751       2.63575686       0.00000000
Si      -2.87557500      -1.92963195      -1.16406993       0.00000000
Si       3.04982194      -0.96247836      -1.76851339       0.00000000
Si      -0.37475471      -0.28095363       3.62948771       0.00000000
Si      -0.47725953       3.14928054       2.00297526       0.00000000
