10
Lattice="16.28999089631971 0.0 0.0 0.0 16.28999089631971 0.0 0.0 0.0 34.474598006748145" Properties=species:S:1:pos:R:3:initial_magmoms:R:1 pbc="T T T"
Si      -0.38667151      -2.10095388      -0.99373084       0.00000000
Si      -0.84474631       1.23028596      -1.82453464       0.00000000
Si       2.35210821       0.31128561       0.40931713       0.00000000
Si      -1.36995220      -0.09759339       1.99594244       0.00000000
Si       3.23160531      -1.10192076      -1.23291574       0.00000000
Si       2.48268885      -0.70560135       2.55853372       0.00000000
Si       1.82919921      -3.00555387      -0.99514430       0.00000000
Si       0.37475471       0.28095363      -3.62948771       0.00000000
Si       0.24384827      -1.11120606       3.51796232       0.00000000
Si      -2.26080343      -2.92987053       0.19150650       0.00000000
