10
Lattice="16.28999089631971 0.0 0.0 0.0 16.28999089631971 0.0 0.0 0.0 34.474598006748145" Properties=species:S:1:pos:R:3:initial_magmoms:R:1 pbc="T T T"
Si      -1.35770797      -1.34736219       1.39154035       0.00000000
Si       1.36088289       1.36849032       1.38967872       0.00000000
Si      -1.47555146       1.31165451      -1.48078134       0.00000000
Si       1.39714443      -1.40690214      -1.47854394       0.00000000
Si      -2.69867375      -2.70591561       0.01459311       0.00000000
Si      -2.71072835       2.69648370       0.03338867       0.00000000
Si       2.51967204       0.19849365      -2.86915834       0.00000000
Si       2.71635750      -2.70583416       0.02519750       0.00000000
Si       2.71028133       2.71596654       0.02857256       0.00000000
Si       0.00299736      -2.70633915       2.75073661       0.00000000
