10
Lattice="16.28999089631971 0.0 0.0 0.0 16.28999089631971 0.0 0.0 0.0 34.474598006748145" Properties=species:S:1:pos:R:3:initial_magmoms:R:1 pbc="T T T"
Si       1.34434039       1.34806266      -1.35333558       0.00000000
Si       1.37196823      -1.32093981       1.35919626       0.00000000
Si      -1.21771252       1.44891405       1.40556462       0.00000000
Si      -1.36978520      -1.36562328      -1.35271503       0.00000000
Si      -2.01761328      -0.43230402       2.72159866       0.00000000
Si      -0.36638653      -2.24378460       2.56125722       0.00000000
Si       2.60077180       0.18322992       2.60159252       0.00000000
Si      -0.01018940       2.70524772      -2.71063573       0.00000000
Si       2.70509297      -0.00602730      -2.71153207       0.00000000
Si       2.70457168       2.71880100       0.02413223       0.00000000
