10
Lattice="16.28999089631971 0.0 0.0 0.0 16.28999089631971 0.0 0.0 0.0 34.474598006748145" Properties=species:S:1:pos:R:3:initial_magmoms:R:1 pbc="T T T"
Si       1.21771252      -1.44891405      -1.40556462       0.00000000
Si       1.03087763       1.61363853       1.42886946       0.00000000
Si      -1.51395662       1.24963848      -1.37974313       0.00000000
Si      -0.79990076      -1.88121807       1.31603404       0.00000000
Si       2.55152958       0.30744117       2.74280055       0.00000000
Si       2.56205292      -0.10085139      -2.75890020       0.00000000
Si       2.58632502       2.73999203       0.05960661       0.00000000
Si       2.58968076      -2.76985386      -0.04636836       0.00000000
Si      -2.69421599      -2.68198560       0.01106635       0.00000000
Si      -0.15010895       2.61999135      -2.75755569       0.00000000
