10
Lattice="16.28999089631971 0.0 0.0 0.0 16.28999089631971 0.0 0.0 0.0 34.474598006748145" Properties=species:S:1:pos:R:3:initial_magmoms:R:1 pbc="T T T"
Si       1.62929974       0.88583391       1.47085955       0.00000000
Si      -2.07575392       0.50187861       1.10222246       0.00000000
Si      -0.19323850      -2.37368106      -0.38318537       0.00000000
Si       1.19258113       0.76435938      -2.06296110       0.00000000
Si      -2.74587565      -1.76060691       1.57690347       0.00000000
Si       3.54646984       1.22530122       0.21146730       0.00000000
Si       0.82371037       2.98556604       2.18403595       0.00000000
Si      -1.42497150       2.18212695       2.77496537       0.00000000
Si       0.58059841      -3.50124228       1.46448174       0.00000000
Si      -2.53350292      -2.85400800      -0.57338183       0.00000000
