10
Lattice="16.28999089631971 0.0 0.0 0.0 16.28999089631971 0.0 0.0 0.0 34.474598006748145" Properties=species:S:1:pos:R:3:initial_magmoms:R:1 pbc="T T T"
Si       0.59653980      -2.10471687      -0.81101537       0.00000000
Si      -2.11169714      -0.66134142       0.76254406       0.00000000
Si       1.28743128       0.75469941       1.84190985       0.00000000
Si      -0.27450279       1.49389074      -1.84597786       0.00000000
Si       3.04552953       1.74832425       0.54535397       0.00000000
Si      -1.32320412      -2.89318545      -1.85235566       0.00000000
Si      -1.76989221      -1.73799639       2.78837599       0.00000000
Si       0.08451252       2.59297704       2.73004494       0.00000000
Si       2.45604330      -1.92213855      -2.16490254       0.00000000
Si      -3.44610782       1.20267441       1.18006615       0.00000000
