10
Lattice="16.290000149 0.0 0.0 0.0 16.290000149 0.0 0.0 0.0 29.1751946751" Properties=species:S:1:pos:R:3:initial_magmoms:R:1 pbc="T T T"
H        0.44360928       1.28612809      -0.66414413       0.00000000
Si      -0.81682948       0.98016931       1.94496435       0.00000000
Si      -1.87812299      -0.71236171      -1.27116323       0.00000000
Si       2.00639045      -1.36805050      -0.07827705       0.00000000
H        0.96941791      -0.24781977      -2.46930095       0.00000000
H       -0.65373400      -2.66626577      -1.04768124       0.00000000
Si       3.18015664       0.68468500      -0.67210896       0.00000000
Si      -2.32099922       2.28918485       0.65142375       0.00000000
Si       0.78582961      -2.96272749      -1.48892689       0.00000000
Si       2.00661851       0.85620241      -2.69138253       0.00000000
