10
Lattice="16.290000149 0.0 0.0 0.0 16.290000149 0.0 0.0 0.0 29.1751946751" Properties=species:S:1:pos:R:3:initial_magmoms:R:1 pbc="T T T"
Si      -1.36704052      -1.35469270      -1.33368567       0.00000000
Si      -1.43687575       1.33530760       1.28257073       0.00000000
Si       1.35327547       1.35136954      -1.36227737       0.00000000
Si       1.36339156      -1.32657616       1.38022011       0.00000000
Si      -0.09107739       2.68063355       2.60018087       0.00000000
Si      -0.09249462      -2.62329275       2.68519739       0.00000000
Si       0.00356751      -2.71507061      -2.66331600       0.00000000
Si      -2.71135649       0.02593368      -2.67626978       0.00000000
Si       2.73165383      -0.01467729      -2.67437340       0.00000000
Si       2.72930807       2.69171075      -0.02914602       0.00000000
