10
Lattice="16.290000149 0.0 0.0 0.0 16.290000149 0.0 0.0 0.0 29.1751946751" Properties=species:S:1:pos:R:3:initial_magmoms:R:1 pbc="T T T"
Si      -1.39742137       1.42544017      -1.22244066       0.00000000
Si      -1.32739066      -1.38197845       1.37543246       0.00000000
Si       1.19970964      -1.47248569      -1.42943866       0.00000000
Si       1.30751686       1.44730135       1.36926774       0.00000000
H        3.21901806       1.73038898      -0.50939890       0.00000000
Si      -0.00446346       2.65660580      -2.65222942       0.00000000
Si       2.67033827      -2.68195304       0.02450716       0.00000000
Si       2.52985331      -0.14144607      -2.82949791       0.00000000
Si      -2.89742088       0.13320333      -2.50291078       0.00000000
Si       2.73458604       0.08016309       2.70346690       0.00000000
