10
Lattice="16.290000149 0.0 0.0 0.0 16.290000149 0.0 0.0 0.0 29.1751946751" Properties=species:S:1:pos:R:3:initial_magmoms:R:1 pbc="T T T"
Si      -1.34273584       1.35764119      -1.36892931       0.00000000
Si       1.32759755      -1.34890975      -1.39556626       0.00000000
Si       1.34822231       1.37808514       1.35121997       0.00000000
Si      -1.34449516      -1.37209042       1.36233572       0.00000000
Si       2.66620061      -2.70954830      -0.03369735       0.00000000
Si      -2.68662827       2.72272691      -0.01797192       0.00000000
Si      -2.70966233      -2.71164971      -0.00965699       0.00000000
Si       2.71909424       0.03205872       2.70512405       0.00000000
Si      -2.73193077      -0.02906136       2.69424170       0.00000000
Si       2.70848945       2.72823293      -0.00221731       0.00000000
