10
Lattice="16.290000149 0.0 0.0 0.0 16.290000149 0.0 0.0 0.0 29.1751946751" Properties=species:S:1:pos:R:3:initial_magmoms:R:1 pbc="T T T"
Si      -1.33794658       1.15385329       1.55709473       0.00000000
Si      -1.30751686      -1.44730135      -1.36926774       0.00000000
Si       1.42706917      -1.36713826       1.33419916       0.00000000
Si       0.83354302       1.99770788      -1.09171244       0.00000000
H        1.91150120       0.28308762      -1.87866664       0.00000000
Si      -0.91225630       3.54017541      -0.64027007       0.00000000
Si      -2.74380618       2.51830370       0.30360875       0.00000000
Si      -2.70493823      -0.02186118      -2.59170840       0.00000000
Si       0.08379576       2.61387713       2.78192483       0.00000000
Si      -2.63490752      -2.82927981       0.00616472       0.00000000
