10
Lattice="16.290000149 0.0 0.0 0.0 16.290000149 0.0 0.0 0.0 29.1751946751" Properties=species:S:1:pos:R:3:initial_magmoms:R:1 pbc="T T T"
Si       1.36197433      -1.35860230       1.33272289       0.00000000
Si      -1.35467641      -1.37464795      -1.33082651       0.00000000
Si       1.37764531       1.33478632      -1.35749263       0.00000000
Si      -1.37823175       1.33801174       1.36303592       0.00000000
Si       2.65219121       0.06618627       2.66139043       0.00000000
Si      -2.68246944      -0.01285281      -2.70410292       0.00000000
Si       0.03057633      -2.72898065      -2.66410373       0.00000000
Si      -2.70639619       2.69902496      -0.00072938       0.00000000
Si       0.03332934       2.71541270      -2.70007674       0.00000000
Si      -2.70413025      -2.72776867       0.04446300       0.00000000
