10
Lattice="16.290000149 0.0 0.0 0.0 16.290000149 0.0 0.0 0.0 29.1751946751" Properties=species:S:1:pos:R:3:initial_magmoms:R:1 pbc="T T T"
Si       1.34855137       1.37411038      -1.31212521       0.00000000
Si      -1.37749870       1.38815556       1.31723086       0.00000000
Si       1.54855999      -1.32338332       1.18883083       0.00000000
Si      -1.40468671      -1.33112107      -1.35495439       0.00000000
Si      -0.05411538       2.71392054      -2.67148505       0.00000000
Si       2.57515580       2.80619199       0.11888892       0.00000000
Si       2.65017125       0.02624319      -2.74340191       0.00000000
Si       2.62863587      -2.75001267      -0.30695222       0.00000000
Si      -2.70948314       0.10099800       2.69208274       0.00000000
Si      -2.78010030      -2.65509083       0.00688535       0.00000000
