10
Lattice="16.290000149 0.0 0.0 0.0 16.290000149 0.0 0.0 0.0 29.1751946751" Properties=species:S:1:pos:R:3:initial_magmoms:R:1 pbc="T T T"
Si       1.36264222      -1.33955929       1.36437798       0.00000000
Si       1.35555607       1.37064061      -1.34626018       0.00000000
Si      -1.35501850       1.35301483       1.36580756       0.00000000
Si      -1.33543792      -1.40432833      -1.33849958       0.00000000
Si       2.70656723      -2.67043601      -0.02261078       0.00000000
Si      -2.76876246      -0.08472429      -2.62144959       0.00000000
Si       0.01070253      -2.73109997       2.69161594       0.00000000
Si      -2.72460026       2.70106121       0.02465304       0.00000000
Si       0.00928530       2.71559189      -2.71154259       0.00000000
Si       2.71309952       2.71863812       0.02141459       0.00000000
