10
Lattice="16.290000149 0.0 0.0 0.0 16.290000149 0.0 0.0 0.0 29.1751946751" Properties=species:S:1:pos:R:3:initial_magmoms:R:1 pbc="T T T"
H        1.29619531       0.55011331       0.92190698       0.00000000
Si       1.22740264      -1.85217302      -0.66650732       0.00000000
Si      -1.02247444       1.33613839      -1.61756032       0.00000000
Si      -1.78719221      -0.58844368       1.44072946       0.00000000
H        0.96356980       1.25434630      -2.67507360       0.00000000
Si      -2.09121248       2.44265294       0.25216121       0.00000000
Si      -1.79452271      -0.70363027      -2.62766391       0.00000000
Si       2.47811627       1.08921457       1.97230151       0.00000000
Si      -0.30809277      -2.57263085      -2.27584024       0.00000000
Si      -2.85891132      -2.34791030       0.37565981       0.00000000
