10
Lattice="16.290000149 0.0 0.0 0.0 16.290000149 0.0 0.0 0.0 29.1751946751" Properties=species:S:1:pos:R:3:initial_magmoms:R:1 pbc="T T T"
H       -0.60401692      -0.09418878      -1.39825038       0.00000000
Si       0.47605896      -2.02918016       1.05830101       0.00000000
Si      -1.71119936       0.43746795       1.53155184       0.00000000
H        1.50799789      -0.83056195      -1.70674889       0.00000000
Si       1.89960950       1.49905468       0.32186075       0.00000000
Si       0.78855004      -0.90890056      -3.03083592       0.00000000
Si      -2.56069028       2.27817281       0.41291653       0.00000000
Si      -0.33860394       1.47297439       3.16136574       0.00000000
Si       2.06884631      -1.21417516       2.62007836       0.00000000
Si       0.93024046       2.95187835       1.83733706       0.00000000
