10
Lattice="16.290000149 0.0 0.0 0.0 16.290000149 0.0 0.0 0.0 29.1751946751" Properties=species:S:1:pos:R:3:initial_magmoms:R:1 pbc="T T T"
Si       1.37528326       1.34286616      -1.34115452       0.00000000
Si       1.36049194      -1.39473352       1.30512316       0.00000000
Si      -1.35464383      -1.35340579      -1.35982665       0.00000000
Si      -1.35180937       1.36963063       1.35054894       0.00000000
Si       0.00570150       2.69091254      -2.68230905       0.00000000
Si       2.77948128      -0.08389350       2.61739424       0.00000000
Si      -2.73906579       0.00850338       2.66387032       0.00000000
Si       0.01202202      -2.75165796       2.66036930       0.00000000
Si       0.01488906      -2.73237059      -2.68195895       0.00000000
Si       0.02555901       2.73582408       2.68554749       0.00000000
