10
Lattice="16.290000149 0.0 0.0 0.0 16.290000149 0.0 0.0 0.0 29.1751946751" Properties=species:S:1:pos:R:3:initial_magmoms:R:1 pbc="T T T"
Si      -1.43241881       1.20689353      -1.38827246       0.00000000
Si       1.14262948      -1.42213330      -1.46873765       0.00000000
Si      -1.47990905      -1.20098026       1.38736803       0.00000000
Si       1.50096061       1.34314309       1.30331430       0.00000000
H        0.02599884      -2.68392413       0.75569589       0.00000000
H       -2.62029376      -0.23695434       1.67637751       0.00000000
H        2.05387580      -2.31396194      -0.65792982       0.00000000
Si      -0.18878481      -1.04554108       3.41227242       0.00000000
Si      -0.06393825       2.63510300      -2.69056563       0.00000000
Si      -2.90137935       2.41883696      -0.02587840       0.00000000
