10
Lattice="16.290000149 0.0 0.0 0.0 16.290000149 0.0 0.0 0.0 29.1751946751" Properties=species:S:1:pos:R:3:initial_magmoms:R:1 pbc="T T T"
Si       1.39002571       1.34500015       1.27564746       0.00000000
Si       1.25804413      -1.40072824      -1.36492064       0.00000000
Si      -1.31476591       1.26363160      -1.47290970       0.00000000
Si      -1.41099094      -1.40436091       1.25773389       0.00000000
Si      -2.17230410      -0.67274443      -2.51372310       0.00000000
Si      -0.46713204      -2.34105221      -2.64057831       0.00000000
Si      -0.03502350       2.70532919       2.54590626       0.00000000
Si       2.71994149      -0.06372648       2.58683906       0.00000000
Si       2.57932604      -0.07457562      -2.73035680       0.00000000
Si       2.68552055       2.65940768      -0.19345488       0.00000000
