10
Lattice="16.290000149 0.0 0.0 0.0 16.290000149 0.0 0.0 0.0 29.1751946751" Properties=species:S:1:pos:R:3:initial_magmoms:R:1 pbc="T T T"
Si      -1.32994819       1.31417947       1.41930320       0.00000000
Si      -1.42706917      -1.35930277      -1.27836659       0.00000000
Si       1.32887305      -1.39593898       1.36872508       0.00000000
Si       1.33635016       1.36436456      -1.40742014       0.00000000
Si       0.01725111      -2.55293624      -2.63496646       0.00000000
Si       2.63371835       2.64831582       0.09763187       0.00000000
Si      -2.60913186       2.68764151       0.03260620       0.00000000
Si      -2.74194097      -0.07646526       2.67567753       0.00000000
Si       2.66592368      -0.07125246       2.77367701       0.00000000
Si       2.71028135      -2.75271681       0.04410122       0.00000000
