10
Lattice="16.290000149 0.0 0.0 0.0 16.290000149 0.0 0.0 0.0 29.1751946751" Properties=species:S:1:pos:R:3:initial_magmoms:R:1 pbc="T T T"
Si      -1.34793064      -1.35371530       1.35752181       0.00000000
Si      -1.36829314       1.35672895      -1.34112535       0.00000000
Si       1.33028059      -1.34925184      -1.39145256       0.00000000
Si       1.31439295       1.36624231       1.39410750       0.00000000
Si       0.02988099       2.69156414      -2.67589051       0.00000000
Si       2.68122171      -2.70844058      -0.03165509       0.00000000
Si      -2.69182307       0.01137042       2.70847920       0.00000000
Si       2.68987169       2.71437014       0.04338351       0.00000000
Si      -2.71875044      -2.70146846       0.00183804       0.00000000
Si       2.70329466       0.01687644       2.72423380       0.00000000
