10
Lattice="16.290000149 0.0 0.0 0.0 16.290000149 0.0 0.0 0.0 29.1751946751" Properties=species:S:1:pos:R:3:initial_magmoms:R:1 pbc="T T T"
Si      -1.35656605       1.35076681      -1.30833243       0.00000000
Si       1.38575773       1.35338950       1.29520359       0.00000000
Si       1.36234900      -1.34921926      -1.33097238       0.00000000
Si      -1.34835589      -1.30873861       1.38929360       0.00000000
H       -0.43710957      -2.20056725       2.20010143       0.00000000
Si       2.61720029      -0.17492202       2.52963525       0.00000000
Si      -2.66807396      -0.07739379      -2.62932689       0.00000000
Si      -2.55492362       2.74849770       0.16746562       0.00000000
Si       0.01796787       2.60938109      -2.73359904       0.00000000
Si       2.59976999      -2.74313829       0.04113702       0.00000000
