10
Lattice="16.290000149 0.0 0.0 0.0 16.290000149 0.0 0.0 0.0 29.1751946751" Properties=species:S:1:pos:R:3:initial_magmoms:R:1 pbc="T T T"
Si       1.33345054       1.33999098      -1.32901473       0.00000000
Si      -1.33032286       1.41948618       1.28624681       0.00000000
Si       1.43379694      -1.34657214       1.26179799       0.00000000
Si      -1.36060597      -1.28265966      -1.40966080       0.00000000
Si       0.05413167      -2.69020393       2.59700078       0.00000000
Si      -2.67897197       0.04565273       2.62340433       0.00000000
Si       0.05538600       2.76969913       2.61112157       0.00000000
Si       2.78057271       0.04128375       2.60108531       0.00000000
Si      -2.71068860      -2.67780724      -0.09939989       0.00000000
Si      -0.03958470      -2.77124668      -2.61751094       0.00000000
