10
Lattice="16.290000149 0.0 0.0 0.0 16.290000149 0.0 0.0 0.0 29.1751946751" Properties=species:S:1:pos:R:3:initial_magmoms:R:1 pbc="T T T"
Si      -0.31309380       0.88998787       2.13413632       0.00000000
Si      -1.86450455      -0.92730826      -1.09576196       0.00000000
Si       1.05067243       1.76658536      -1.18127446       0.00000000
Si       1.59785353      -1.78062734      -0.08600847       0.00000000
Si       2.13074831       0.33995601      -2.67705751       0.00000000
Si      -0.68163877      -2.38234736      -2.50935849       0.00000000
Si       1.32468652       2.55751373       2.21206326       0.00000000
Si       2.21970800      -2.18282744       2.06356152       0.00000000
Si       3.42648750      -0.95493610      -1.25138245       0.00000000
Si      -3.16252434      -2.18632979       0.39126854       0.00000000
