10
Lattice="16.290000149 0.0 0.0 0.0 16.290000149 0.0 0.0 0.0 29.1751946751" Properties=species:S:1:pos:R:3:initial_magmoms:R:1 pbc="T T T"
Si       1.34796493       1.36339156       1.34838997       0.00000000
Si      -1.34289386       1.35853714      -1.36306510       0.00000000
Si       1.35943309      -1.35527914      -1.35367068       0.00000000
Si      -1.36783385      -1.36487395       1.34436380       0.00000000
Si      -0.03323160      -2.69825933      -2.68321348       0.00000000
Si       2.69228090      -0.01723482       2.69097408       0.00000000
Si      -2.67779893      -0.01839141      -2.70821662       0.00000000
Si      -0.04069242       2.71168229       2.68347606       0.00000000
Si       2.69697242       2.71060715      -0.02824159       0.00000000
Si       2.68918580      -2.72533331       0.01896388       0.00000000
