10
Lattice="16.290000149 0.0 0.0 0.0 16.290000149 0.0 0.0 0.0 29.1751946751" Properties=species:S:1:pos:R:3:initial_magmoms:R:1 pbc="T T T"
Si      -0.64391113       0.83904904      -1.08169952       0.00000000
Si       2.14011506       0.25047504       1.31203768       0.00000000
Si       2.24787341      -1.47712834      -0.49387770       0.00000000
Si       0.38581236       1.22539897       2.57363145       0.00000000
Si      -2.06961194       2.07511796       0.20145472       0.00000000
Si       0.41640498      -2.66568748      -1.49884645       0.00000000
Si      -2.08704224      -0.49309830      -2.28704351       0.00000000
Si      -0.65464624      -2.30115800       2.11820666       0.00000000
Si      -1.37386603      -0.26505459       2.90223167       0.00000000
Si       0.85703320       2.20032290      -2.24269721       0.00000000
