10
Lattice="16.290000149 0.0 0.0 0.0 16.290000149 0.0 0.0 0.0 29.1751946751" Properties=species:S:1:pos:R:3:initial_magmoms:R:1 pbc="T T T"
H       -0.89026480       0.84634696      -0.88736355       0.00000000
Si       1.03014703      -1.48903633      -1.47080909       0.00000000
Si      -1.39295791      -1.23116563       1.42978877       0.00000000
Si       1.89643295       1.30210858       0.63114699       0.00000000
Si       1.95452309       0.34275789      -2.63872131       0.00000000
Si       0.02997360       1.84300175      -2.94421477       0.00000000
H       -2.79712335       0.41130621      -2.14061321       0.00000000
Si       2.14552334       0.78840343       2.92978472       0.00000000
Si       0.00446346      -2.65660580       2.65222942       0.00000000
Si       2.53431677      -2.79805188      -0.17726848       0.00000000
