10
Lattice="16.290000149 0.0 0.0 0.0 16.290000149 0.0 0.0 0.0 29.1751946751" Properties=species:S:1:pos:R:3:initial_magmoms:R:1 pbc="T T T"
H        0.91124632      -0.89182864       0.81080784       0.00000000
Si       1.34835589       1.30873861      -1.38929360       0.00000000
Si      -1.14262948       1.42213330       1.46873765       0.00000000
Si      -1.31430979      -1.46926027      -1.27845703       0.00000000
H       -1.11663064      -1.26179083       2.22443354       0.00000000
Si      -2.57504829       2.62902683       0.08046519       0.00000000
Si      -0.48925386      -2.55913622       2.66267414       0.00000000
Si      -2.66186096      -0.13556538      -2.65441756       0.00000000
Si       1.81589519      -2.40303566       2.29340370       0.00000000
Si      -0.00821016       2.65950542      -2.69762603       0.00000000
