10
Lattice="16.290000149 0.0 0.0 0.0 16.290000149 0.0 0.0 0.0 29.1751946751" Properties=species:S:1:pos:R:3:initial_magmoms:R:1 pbc="T T T"
Si      -1.60961329       1.01196739      -1.36230654       0.00000000
Si       1.38491065      -1.47807316      -1.21368810       0.00000000
Si      -0.84536956      -1.48696750       1.63340245       0.00000000
Si       0.45165654       1.80395462       1.49412007       0.00000000
H        0.34790553      -1.12164796       2.52873082       0.00000000
Si      -1.86782119       1.99016561       2.07820747       0.00000000
Si      -0.33282099       2.46795131      -2.66929691       0.00000000
Si      -3.04135932       2.16168302       0.05893389       0.00000000
Si       2.70304859      -0.12085551      -2.59408326       0.00000000
Si      -0.11604996      -2.82121626      -2.51700240       0.00000000
