10
Lattice="16.290000149 0.0 0.0 0.0 16.290000149 0.0 0.0 0.0 29.1751946751" Properties=species:S:1:pos:R:3:initial_magmoms:R:1 pbc="T T T"
Si       1.34181546       1.36098064       1.35364151       0.00000000
Si      -1.33578001       1.37603260      -1.35305800       0.00000000
Si       1.36574221      -1.35089713      -1.34973203       0.00000000
Si      -1.35361756      -1.34729704       1.37441425       0.00000000
Si      -2.69465924       0.01107720      -2.68417626       0.00000000
Si       2.66997989      -0.00003258       2.71740681       0.00000000
Si      -0.00426798      -2.71955036      -2.67478185       0.00000000
Si       2.69353523      -2.71269227       0.02354438       0.00000000
Si      -2.68297931       2.72355770       0.01342059       0.00000000
Si       2.69288363       2.72565911      -0.01061977       0.00000000
