10
Lattice="16.290000149 0.0 0.0 0.0 16.290000149 0.0 0.0 0.0 29.1751946751" Properties=species:S:1:pos:R:3:initial_magmoms:R:1 pbc="T T T"
Si      -1.19327509      -0.36531954      -0.89532837       0.00000000
H        1.40164048      -2.02528685       0.45338253       0.00000000
Si      -0.34790553       1.12164796      -2.52873082       0.00000000
Si       0.10375101       2.92560258      -1.03461075       0.00000000
Si      -1.96839728      -2.47917512       0.27809796       0.00000000
Si       2.00857331       1.16753689       2.18735187       0.00000000
Si      -1.45246528      -1.56965554       2.37150570       0.00000000
Si       0.60479884      -0.56293354       3.09674269       0.00000000
Si      -0.65274031      -2.74510938      -1.63346080       0.00000000
H        3.11575575       0.63588016      -0.74245035       0.00000000
