10
Lattice="16.290000149 0.0 0.0 0.0 16.290000149 0.0 0.0 0.0 29.1751946751" Properties=species:S:1:pos:R:3:initial_magmoms:R:1 pbc="T T T"
Si       0.74767843      -1.31914792       1.79007324       0.00000000
Si      -1.75430270       0.97492393       1.26159377       0.00000000
Si       1.38885283       1.81563455      -0.75362445       0.00000000
Si       0.10775835      -1.72760339      -1.80591538       0.00000000
H       -2.14011506      -0.25047504      -1.31203768       0.00000000
Si       2.88723963       0.55698769      -2.03476560       0.00000000
Si       2.73947304      -2.20653102       0.81454226       0.00000000
Si      -0.75668680      -3.17547815       1.72641297       0.00000000
Si      -2.78402619       0.58857400      -2.39373720       0.00000000
Si       1.54437346      -3.35060151      -0.87741480       0.00000000
