10
Lattice="16.290000149 0.0 0.0 0.0 16.290000149 0.0 0.0 0.0 29.1751946751" Properties=species:S:1:pos:R:3:initial_magmoms:R:1 pbc="T T T"
Si       0.84949093      -1.84070486       1.11863531       0.00000000
Si      -1.72458974       0.77051701       1.36822910       0.00000000
Si      -1.05533137      -0.08263917      -2.10332731       0.00000000
Si       1.79346386       1.59887980       0.12530746       0.00000000
H        2.32244903       1.87154183      -1.24989452       0.00000000
H       -1.15908238      -3.00824175      -1.06871656       0.00000000
H        1.67987369       0.96630652      -2.84994972       0.00000000
Si       2.56069028      -2.27817281      -0.41291653       0.00000000
Si      -0.36771417       2.11786292       2.70967538       0.00000000
Si      -0.64552384       2.13646610      -2.67869132       0.00000000
