10
Lattice="16.290000149 0.0 0.0 0.0 16.290000149 0.0 0.0 0.0 29.1751946751" Properties=species:S:1:pos:R:3:initial_magmoms:R:1 pbc="T T T"
Si      -1.35753628      -1.41165883       1.29584545       0.00000000
Si       1.33633778      -1.36515088      -1.37356817       0.00000000
Si      -1.44017546       1.34776945      -1.28790979       0.00000000
Si       1.38328719       1.35394336       1.36297757       0.00000000
Si      -2.59643967      -0.04781115       2.71390578       0.00000000
Si      -0.06371931       2.67424787      -2.67895390       0.00000000
Si      -0.00127202       2.75047090       2.65397993       0.00000000
Si       2.70720971      -2.71117730      -0.01966408       0.00000000
Si       2.71110302       2.70759350      -0.01730089       0.00000000
Si      -0.04174410      -2.79230151       2.62562164       0.00000000
