10
Lattice="16.290000149 0.0 0.0 0.0 16.290000149 0.0 0.0 0.0 29.1751946751" Properties=species:S:1:pos:R:3:initial_magmoms:R:1 pbc="T T T"
Si       1.05764455      -1.46036593      -1.48574679       0.00000000
Si      -1.31813794      -1.35721765       1.38039516       0.00000000
Si      -1.44523252       1.33696918      -1.29631225       0.00000000
Si       1.80805970       0.77672350       1.38232072       0.00000000
Si       2.15317964      -1.17962407       2.74777818       0.00000000
Si       0.28329939      -2.64585440       2.59883882       0.00000000
Si       2.43426359      -0.14470407      -2.84347282       0.00000000
Si      -2.70304859       0.12085551       2.59408326       0.00000000
Si       2.28908711      -2.98867746      -0.25131513       0.00000000
Si      -0.14721273       2.59599071      -2.78334275       0.00000000
