10
Lattice="16.290000149 0.0 0.0 0.0 16.290000149 0.0 0.0 0.0 29.1751946751" Properties=species:S:1:pos:R:3:initial_magmoms:R:1 pbc="T T T"
Si       0.97997383      -1.86095333       0.89305271       0.00000000
Si      -1.47545047      -1.01123434      -1.47912402       0.00000000
Si      -1.61135794       0.79781905       1.51996929       0.00000000
Si       1.66055375       1.51785334      -0.73696542       0.00000000
H        0.92375704       2.06842277       1.76431155       0.00000000
H        0.26280657       2.47283831       1.71237970       0.00000000
H       -0.89191009       0.87615766       2.84405633       0.00000000
Si      -1.95647789       2.75416662       0.15451183       0.00000000
Si       0.17246223       3.31791465      -0.85182816       0.00000000
Si      -2.59208111      -2.43151058       0.08099034       0.00000000
