10
Lattice="16.290000149 0.0 0.0 0.0 16.290000149 0.0 0.0 0.0 29.1751946751" Properties=species:S:1:pos:R:3:initial_magmoms:R:1 pbc="T T T"
Si       1.33014367       1.33103962      -1.40005924       0.00000000
Si      -1.19970964       1.47248569       1.42943866       0.00000000
Si       1.47062863      -1.20946735       1.45394583       0.00000000
Si      -1.56154312      -1.12708882      -1.46547003       0.00000000
H        1.82586467      -3.01962846      -0.79572426       0.00000000
Si      -0.17402607       2.64005516      -2.69359985       0.00000000
Si      -2.52710030       0.09050724       2.80487112       0.00000000
Si       2.92076445       2.46091403      -0.05750431       0.00000000
H        2.01930842       3.20287467       0.92003976       0.00000000
Si      -2.59713101       2.89792587       0.20699801       0.00000000
