10
Lattice="16.290000149 0.0 0.0 0.0 16.290000149 0.0 0.0 0.0 29.1751946751" Properties=species:S:1:pos:R:3:initial_magmoms:R:1 pbc="T T T"
Si       1.37324701       1.38350971       1.30952861       0.00000000
Si       1.37020078      -1.33953649      -1.36671199       0.00000000
Si      -1.32356251       1.36449928      -1.39270709       0.00000000
Si      -1.36643779      -1.35876846       1.37721506       0.00000000
Si      -2.67167405      -2.67297725      -0.07048727       0.00000000
Si       2.67690314       0.00229689       2.68370946       0.00000000
Si      -2.68408703       2.71586882      -0.03961991       0.00000000
Si       2.70171281      -2.70650207       0.00402618       0.00000000
Si      -2.68993514       0.03521898       2.74252665       0.00000000
Si       0.04974966       2.75441097       2.68262998       0.00000000
