10
Lattice="16.290000149 0.0 0.0 0.0 16.290000149 0.0 0.0 0.0 29.1751946751" Properties=species:S:1:pos:R:3:initial_magmoms:R:1 pbc="T T T"
Si      -1.37849239      -1.36389655      -1.30500646       0.00000000
Si      -1.38528532       1.31435866       1.35839706       0.00000000
Si       1.32923143      -1.36671472       1.37596053       0.00000000
Si       1.32470281       1.38684916      -1.38310845       0.00000000
Si      -2.69553890       0.02748123      -2.64674449       0.00000000
Si      -0.01492164       2.67576284       2.68583925       0.00000000
Si      -0.05126463      -2.72284094      -2.67128082       0.00000000
Si       2.68811066      -0.00175932       2.70707879       0.00000000
Si       2.74975203       0.02652012      -2.65336725       0.00000000
Si       2.69454521      -2.71379999       0.02558665       0.00000000
