10
Lattice="16.290000149 0.0 0.0 0.0 16.290000149 0.0 0.0 0.0 29.1751946751" Properties=species:S:1:pos:R:3:initial_magmoms:R:1 pbc="T T T"
Si      -1.37837836       1.36604683       1.31209603       0.00000000
Si      -1.37829691      -1.33535647      -1.34488895       0.00000000
Si       1.35627283       1.35539317      -1.35793026       0.00000000
Si       1.35449722      -1.35169534       1.36907519       0.00000000
Si      -0.00234576       2.70638804       2.64522738       0.00000000
Si      -0.00741195      -2.68113854      -2.68333018       0.00000000
Si      -2.73165383       0.01467729       2.67437340       0.00000000
Si       2.71502174      -2.70306488       0.01598801       0.00000000
Si       0.00052128       2.72567540      -2.69710087       0.00000000
Si      -2.72808632      -2.70039332       0.01105740       0.00000000
