10
Lattice="16.290000149 0.0 0.0 0.0 16.290000149 0.0 0.0 0.0 29.1751946751" Properties=species:S:1:pos:R:3:initial_magmoms:R:1 pbc="T T T"
H        1.32204754       0.80655049      -0.36524426       0.00000000
Si       0.76729159      -0.22561650       2.14423093       0.00000000
Si      -1.38618127       1.86193073      -0.21790953       0.00000000
Si      -0.42699348      -1.78072508      -1.44382203       0.00000000
H        2.13921911       0.37872621       2.19292433       0.00000000
Si       2.46752777       1.80128306      -0.86626988       0.00000000
Si      -1.78262938      -0.46692027      -2.79877643       0.00000000
Si      -3.13546665       0.84317041      -1.38564670       0.00000000
Si      -1.70378578      -3.23670900      -0.13683166       0.00000000
Si       0.35748405      -2.44472177       2.71959495       0.00000000
