10
Lattice="16.290000149 0.0 0.0 0.0 16.290000149 0.0 0.0 0.0 29.1751946751" Properties=species:S:1:pos:R:3:initial_magmoms:R:1 pbc="T T T"
Si      -1.32507748      -1.33615875      -1.33726839       0.00000000
Si       1.31698477      -1.43530540       1.27580209       0.00000000
Si      -1.44270757       1.33163258       1.28268743       0.00000000
Si       1.29901926       1.29051662      -1.47205195       0.00000000
Si       2.63106797      -0.05139984       2.63968409       0.00000000
Si      -0.07411950       2.68055862       2.62051599       0.00000000
Si      -2.74168848       0.00680922      -2.59225689       0.00000000
Si       2.66146348       2.68557594      -0.15386998       0.00000000
Si      -0.15089427       2.67515034      -2.69900601       0.00000000
Si      -0.08118936      -2.77014059       2.61056724       0.00000000
