10
Lattice="16.290000149 0.0 0.0 0.0 16.290000149 0.0 0.0 0.0 29.1751946751" Properties=species:S:1:pos:R:3:initial_magmoms:R:1 pbc="T T T"
Si      -1.36350559      -1.34983828       1.34926523       0.00000000
Si      -1.38935782       1.34819462      -1.33313135       0.00000000
Si       1.32007645      -1.36811566      -1.38383783       0.00000000
Si       1.36331011       1.34352428       1.37511445       0.00000000
Si      -0.05795982       2.71857296       2.66369527       0.00000000
Si       0.01273878      -2.70151733       2.69164511       0.00000000
Si       2.69022836      -2.71034651      -0.03180096       0.00000000
Si      -0.04538394       2.70386309      -2.69853046       0.00000000
Si       2.69796611       2.70733286       0.00711875       0.00000000
Si       2.69713532      -0.01246185      -2.71586052       0.00000000
