10
Lattice="16.290000149 0.0 0.0 0.0 16.290000149 0.0 0.0 0.0 29.1751946751" Properties=species:S:1:pos:R:3:initial_magmoms:R:1 pbc="T T T"
Si      -1.38908089      -1.27332415      -1.37629196       0.00000000
Si       1.20273958      -1.39877344       1.43979294       0.00000000
Si      -1.41982012       1.38129427       1.28293834       0.00000000
Si       1.87422968       0.80140285      -1.19586935       0.00000000
Si       2.51875982      -2.72160128       0.03937484       0.00000000
Si       2.63112824       0.00537570       2.68224778       0.00000000
Si       2.68376123       2.66062943      -0.01587714       0.00000000
Si       3.50715558      -0.93431296      -1.11317372       0.00000000
Si      -0.09923868       2.72181467       2.67699625       0.00000000
Si      -2.72409039      -2.68227559      -0.02565083       0.00000000
