10
Lattice="16.290000149 0.0 0.0 0.0 16.290000149 0.0 0.0 0.0 29.1751946751" Properties=species:S:1:pos:R:3:initial_magmoms:R:1 pbc="T T T"
Si      -1.23162175       1.20126289       1.59591816       0.00000000
Si      -1.94180060      -0.85193443      -1.06284067       0.00000000
Si       1.30137553      -1.52998939       1.31761306       0.00000000
Si       1.47756492       1.30811405      -1.37213858       0.00000000
H       -0.86384242      -2.56655468      -1.84979487       0.00000000
Si      -2.64823274       2.54423087       0.34092965       0.00000000
Si       2.64946590      -0.28312020      -2.65727673       0.00000000
Si       2.82469091       2.52099481       0.10952076       0.00000000
Si      -3.68759991       0.69053311      -0.61139830       0.00000000
Si       2.69188180      -0.24311196       2.75259209       0.00000000
