10
Lattice="16.290000149 0.0 0.0 0.0 16.290000149 0.0 0.0 0.0 29.1751946751" Properties=species:S:1:pos:R:3:initial_magmoms:R:1 pbc="T T T"
Si      -1.39300678       1.35361756       1.31180428       0.00000000
Si       1.33797916       1.34957764      -1.37289714       0.00000000
Si      -1.40170564      -1.36961434      -1.31300046       0.00000000
Si       1.35184195      -1.31088889       1.42707547       0.00000000
Si       2.58476690      -2.74023541       0.01015297       0.00000000
Si       2.68038920       2.67665879       0.03512693       0.00000000
Si      -2.89395111      -0.00765630       2.47280198       0.00000000
Si      -0.05782950       2.64168416       2.74459809       0.00000000
Si       2.66147651      -0.02132361      -2.74599850       0.00000000
Si      -0.00216657      -2.32383368       3.06062380       0.00000000
