10
Lattice="16.290000149 0.0 0.0 0.0 16.290000149 0.0 0.0 0.0 29.1751946751" Properties=species:S:1:pos:R:3:initial_magmoms:R:1 pbc="T T T"
Si       1.34628706       1.32997426      -1.34675616       0.00000000
Si      -1.35620767       1.39518313       1.28922268       0.00000000
Si       1.37051029      -1.36072652       1.31349644       0.00000000
Si      -1.30135924      -1.32698993      -1.42550293       0.00000000
Si      -2.68071012       0.01149911       2.65114994       0.00000000
Si      -0.01697418      -2.72006187       2.61762764       0.00000000
Si       0.03645702       2.73816332       2.61876547       0.00000000
Si       2.72622926       0.01103810       2.65167509       0.00000000
Si      -2.58054291       0.04647211      -2.81219993       0.00000000
Si      -2.65031461       2.74847489      -0.14240413       0.00000000
