10
Lattice="16.290000149 0.0 0.0 0.0 16.290000149 0.0 0.0 0.0 29.1751946751" Properties=species:S:1:pos:R:3:initial_magmoms:R:1 pbc="T T T"
Si       1.36829314      -1.35672895       1.34112535       0.00000000
Si       1.39817413       1.33483519      -1.33476516       0.00000000
Si      -1.35109261       1.36086661       1.35953490       0.00000000
Si      -1.35754345      -1.34799751      -1.36767478       0.00000000
Si       0.08118936       2.77014059      -2.61056724       0.00000000
Si       2.69857373      -2.70598079      -0.05032721       0.00000000
Si       0.02036250      -2.71044425       2.69864716       0.00000000
Si      -2.71011845      -0.00278559       2.70200230       0.00000000
Si       2.68268609       0.00951336       2.73523285       0.00000000
Si      -2.71125875       2.71391077       0.00732297       0.00000000
