10
Lattice="16.290000149 0.0 0.0 0.0 16.290000149 0.0 0.0 0.0 29.1751946751" Properties=species:S:1:pos:R:3:initial_magmoms:R:1 pbc="T T T"
Si       1.40007664       1.41431736       1.25925975       0.00000000
Si      -1.26289855       1.39095098      -1.42920526       0.00000000
Si       1.42879591      -1.28326105      -1.41135004       0.00000000
Si      -1.30070764      -1.58980627       1.26842076       0.00000000
Si       0.27253170      -2.67884165       2.59046554       0.00000000
Si      -2.53232939      -2.73031805      -0.35039409       0.00000000
Si      -2.58639590       2.78493843      -0.06389368       0.00000000
Si       2.86769935       0.11944040       2.53053969       0.00000000
Si      -2.56813481       0.07674219      -2.87690760       0.00000000
Si       2.86897137      -2.63103050      -0.12344025       0.00000000
