10
Lattice="16.28999089631971 0.0 0.0 0.0 16.28999089631971 0.0 0.0 0.0 34.56409401068381" Properties=species:S:1:pos:R:3:initial_magmoms:R:1 pbc="T T T"
Si       1.34203536       1.35881376       1.38180758       0.00000000
Si      -1.36877051      -1.36026321       1.38408881       0.00000000
Si      -1.34916549       1.40989595      -1.42370965       0.00000000
Si       1.47466854      -1.26345174      -1.43934991       0.00000000
Si      -0.16667928      -2.50753533      -2.55364163       0.00000000
Si       2.69653257       2.72268587       0.01627624       0.00000000
Si       2.70928764      -2.72228640       0.00380551       0.00000000
Si      -2.73016232       2.70506009       0.01674977       0.00000000
Si      -2.72508329      -2.71042728       0.02750612       0.00000000
Si       2.70493821      -0.00155698       2.74104134       0.00000000
