10
Lattice="16.28999089631971 0.0 0.0 0.0 16.28999089631971 0.0 0.0 0.0 34.56409401068381" Properties=species:S:1:pos:R:3:initial_magmoms:R:1 pbc="T T T"
Si      -1.80347797      -1.47828492       0.17924949       0.00000000
Si       2.01497037      -0.81709011      -0.86545083       0.00000000
Si      -1.00230319       1.35234693      -1.72547510       0.00000000
Si       0.39327155       1.14912918       2.12738661       0.00000000
Si      -2.96425450      -0.66360573       2.02137848       0.00000000
Si       3.23336463       1.13352336      -1.30379292       0.00000000
Si      -1.29887893       2.76403248       2.14577472       0.00000000
Si      -3.51915706      -0.59800590      -1.16208005       0.00000000
Si      -3.07834966       2.11966687      -0.85553093       0.00000000
Si       0.56377572       3.06669580      -2.32575006       0.00000000
