10
Lattice="16.28999089631971 0.0 0.0 0.0 16.28999089631971 0.0 0.0 0.0 34.56409401068381" Properties=species:S:1:pos:R:3:initial_magmoms:R:1 pbc="T T T"
Si      -1.69215048       1.61490330       0.01838811       0.00000000
Si      -0.25647465      -0.96190821       2.11694825       0.00000000
Si       2.01220270       1.12238330       0.41974659       0.00000000
Si      -0.39327155      -1.14912918      -2.12738661       0.00000000
Si      -2.36645874      -1.90045656       2.02383253       0.00000000
Si      -3.63820275       0.45568801      -0.68585570       0.00000000
Si       2.87557270       1.67467294      -1.68562268       0.00000000
Si      -0.85948713       3.36017807      -1.40005397       0.00000000
Si      -3.35752605      -1.81273491      -0.10600814       0.00000000
Si       1.41670546       3.13192259       1.80123964       0.00000000
