10
Lattice="16.28999089631971 0.0 0.0 0.0 16.28999089631971 0.0 0.0 0.0 34.56409401068381" Properties=species:S:1:pos:R:3:initial_magmoms:R:1 pbc="T T T"
Si      -1.11019608      -1.41044245       1.45124343       0.00000000
Si       0.68204601      -1.25822005      -1.81368272       0.00000000
Si       2.02548231       0.46672316       1.11908230       0.00000000
Si      -1.75286916       1.17533816      -1.10802178       0.00000000
Si      -2.04724575       0.33547463       2.84849771       0.00000000
Si      -0.41897880       2.04843329      -2.85810653       0.00000000
Si      -1.22598540      -2.58692598      -2.13754846       0.00000000
Si      -2.27550123      -2.85924591      -0.01707467       0.00000000
Si       3.66598305      -0.56765437      -0.33776052       0.00000000
Si       2.61286713      -2.46414825      -1.23418079       0.00000000
