10
Lattice="16.28999089631971 0.0 0.0 0.0 16.28999089631971 0.0 0.0 0.0 34.56409401068381" Properties=species:S:1:pos:R:3:initial_magmoms:R:1 pbc="T T T"
Si       1.96160922      -1.18010366      -0.50888744       0.00000000
Si       0.45063027       0.25000915       2.29612861       0.00000000
Si      -1.84612941      -1.44567953       0.22445935       0.00000000
Si      -0.47765538       0.98772786      -2.15877083       0.00000000
Si       1.05713955      -2.50363358      -2.14909287       0.00000000
Si      -0.96627393      -3.25836557      -1.10871306       0.00000000
Si       3.26539566       0.47942773      -1.58234511       0.00000000
Si       0.45939429      -0.75818922      -3.55602511       0.00000000
Si      -3.61447407      -0.07272345      -0.69235375       0.00000000
Si       2.59651197       2.55137238      -0.58033146       0.00000000
