10
Lattice="16.28999089631971 0.0 0.0 0.0 16.28999089631971 0.0 0.0 0.0 34.56409401068381" Properties=species:S:1:pos:R:3:initial_magmoms:R:1 pbc="T T T"
Si       0.10922445      -1.98161986       1.26338747       0.00000000
Si       1.44806697      -0.47786715      -1.82291134       0.00000000
Si      -1.86253344      -0.54955944      -1.51352796       0.00000000
Si       0.39829050       2.16930672       1.12257327       0.00000000
Si      -0.31196979      -1.69426751      -2.81963667       0.00000000
Si       1.47461967      -0.98530065       3.05679008       0.00000000
Si      -2.29193784       1.58555457      -2.47396098       0.00000000
Si       1.10633535       3.58265970      -0.88197248       0.00000000
Si      -0.15685641       2.74732479      -2.75600414       0.00000000
Si       1.17915165      -3.76689050       0.13096343       0.00000000
