10
Lattice="16.28999089631971 0.0 0.0 0.0 16.28999089631971 0.0 0.0 0.0 34.56409401068381" Properties=species:S:1:pos:R:3:initial_magmoms:R:1 pbc="T T T"
Si      -2.14552332      -0.57735018      -0.67811334       0.00000000
Si      -0.36393489       1.98156447       1.22654213       0.00000000
Si       1.13323014       0.74805309      -1.98114585       0.00000000
Si       0.65536299      -1.79090631       1.49749021       0.00000000
Si       1.60438581      -0.33404274       3.14059903       0.00000000
Si      -2.72888451       1.46126187      -1.73819470       0.00000000
Si      -0.35921079       1.02042189       3.38382669       0.00000000
Si      -0.71921979       1.96209792      -2.96760564       0.00000000
Si       1.73477097       3.00418551       1.14680272       0.00000000
Si       1.82925297      -3.16638504      -0.05592474       0.00000000
