10
Lattice="16.28999089631971 0.0 0.0 0.0 16.28999089631971 0.0 0.0 0.0 34.56409401068381" Properties=species:S:1:pos:R:3:initial_magmoms:R:1 pbc="T T T"
Si      -1.51747866       1.58739534      -0.79338466       0.00000000
Si      -1.28409183      -1.20829446       1.54602310       0.00000000
Si       1.37914398       1.44537912       1.48775838       0.00000000
Si      -0.13822065      -1.45725453      -2.19502858       0.00000000
Si      -2.62925487      -2.60407053       0.07593736       0.00000000
Si       0.20808846      -2.41813647       2.90630415       0.00000000
Si      -2.53620639       0.30159306       2.90741366       0.00000000
Si      -1.02589533      -3.57923880      -1.45387030       0.00000000
Si      -2.00309985       1.65838716      -3.04143459       0.00000000
Si       3.03893208       2.60576469       0.34550568       0.00000000
