10
Lattice="16.28999089631971 0.0 0.0 0.0 16.28999089631971 0.0 0.0 0.0 34.56409401068381" Properties=species:S:1:pos:R:3:initial_magmoms:R:1 pbc="T T T"
Si       2.08984410      -0.66873708      -1.01117314       0.00000000
Si      -0.88767468      -2.12198427       0.74115828       0.00000000
Si      -1.88600733       0.81041121      -1.44256783       0.00000000
Si       0.13822065       1.45725453       2.19502858       0.00000000
Si      -2.49103422      -1.14681600       2.27096594       0.00000000
Si      -1.37925801       3.04464987       1.40164392       0.00000000
Si      -1.86487920       3.11564169      -0.84640601       0.00000000
Si       2.57054571       1.11887865      -2.48837421       0.00000000
Si      -3.22864542      -2.08445211       0.15114887       0.00000000
Si      -1.14587118       0.24896007       3.74105168       0.00000000
