10
Lattice="16.28999089631971 0.0 0.0 0.0 16.28999089631971 0.0 0.0 0.0 34.56409401068381" Properties=species:S:1:pos:R:3:initial_magmoms:R:1 pbc="T T T"
Si      -0.91166985      -1.24799319       1.80089400       0.00000000
Si       1.40160789      -1.24861221      -1.54263094       0.00000000
Si      -1.30833135       1.43791734      -1.53530335       0.00000000
Si       0.88444926       2.00797775       1.26459721       0.00000000
Si      -2.44680687      -2.46404169       0.04590114       0.00000000
Si       2.81890305      -2.55821418      -0.17631154       0.00000000
Si      -2.24507151       0.41469520       3.12829420       0.00000000
Si      -2.68172496       2.79587618      -0.14586056       0.00000000
Si       0.05175333      -2.61148248      -2.92277599       0.00000000
Si      -2.66191632       0.10562285      -2.92049476       0.00000000
