10
Lattice="16.28999089631971 0.0 0.0 0.0 16.28999089631971 0.0 0.0 0.0 34.56409401068381" Properties=species:S:1:pos:R:3:initial_magmoms:R:1 pbc="T T T"
Si       1.09206531       1.63193220      -1.31539060       0.00000000
Si       1.44518364      -1.20443373       1.46523844       0.00000000
Si      -1.27977498       1.50097689       1.44967767       0.00000000
Si      -0.77079393      -2.11625019      -1.15579906       0.00000000
Si      -1.84712310       1.03835718      -3.09001587       0.00000000
Si       0.08361657      -2.55538135       2.83304409       0.00000000
Si       2.81577537      -2.57634006       0.07723005       0.00000000
Si       2.65105089       0.38954277      -2.74454756       0.00000000
Si      -2.47059027       2.93922099      -0.10128322       0.00000000
Si      -2.76250707      -2.69590703       0.13792464       0.00000000
