10
Lattice="16.28999089631971 0.0 0.0 0.0 16.28999089631971 0.0 0.0 0.0 34.56409401068381" Properties=species:S:1:pos:R:3:initial_magmoms:R:1 pbc="T T T"
Si      -1.33980363      -1.34987085       1.34336883       0.00000000
Si      -1.35179307       1.35687555      -1.35650319       0.00000000
Si       1.36117611      -1.35769005      -1.35529345       0.00000000
Si       1.35089712       1.35826020       1.37022514       0.00000000
Si       2.67141339      -0.10536372       2.68234801       0.00000000
Si       0.04916322      -2.57069232       2.78210005       0.00000000
Si      -2.66449014      -0.06240699       2.74356106       0.00000000
Si      -2.71143792       2.71321353       0.00470072       0.00000000
Si      -2.71130760      -0.00052128      -2.71345572       0.00000000
Si       0.00332316       2.71383255      -2.71400874       0.00000000
