10
Lattice="16.28999089631971 0.0 0.0 0.0 16.28999089631971 0.0 0.0 0.0 34.56409401068381" Properties=species:S:1:pos:R:3:initial_magmoms:R:1 pbc="T T T"
Si      -1.77909606       0.96695811       1.17860170       0.00000000
Si       1.25434629       1.44322884      -1.38785284       0.00000000
Si      -1.41747435      -1.39496157      -1.39967377       0.00000000
Si       1.71934434      -0.17161515       1.71161489       0.00000000
Si      -1.05779115       0.79276914       3.38738680       0.00000000
Si       2.63443509       2.69667918       0.05907007       0.00000000
Si       2.59791291       0.02570562      -2.77300968       0.00000000
Si      -0.09278784      -2.68242543      -2.79986600       0.00000000
Si      -0.11683188       2.75328693      -2.76229481       0.00000000
Si      -3.69747162      -0.40306347       1.29829722       0.00000000
