10
Lattice="16.28999089631971 0.0 0.0 0.0 16.28999089631971 0.0 0.0 0.0 34.56409401068381" Properties=species:S:1:pos:R:3:initial_magmoms:R:1 pbc="T T T"
Si       0.23633532      -1.58258979       1.71268638       0.00000000
Si       1.82203650      -0.76945815      -1.32743477       0.00000000
Si       0.56018052       2.29465827       0.47435789       0.00000000
Si      -2.24182980      -0.85540419      -0.32549026       0.00000000
Si       1.23489603      -3.01498578      -1.59516839       0.00000000
Si      -3.41571978       0.52007454       1.22792469       0.00000000
Si       2.19944322       1.95154200       2.20826664       0.00000000
Si       2.09811942      -0.26775873       3.11948036       0.00000000
Si       0.90521901      -3.65453444       0.71067273       0.00000000
Si       1.02371247       3.48801480      -1.57539772       0.00000000
