10
Lattice="16.28999089631971 0.0 0.0 0.0 16.28999089631971 0.0 0.0 0.0 34.56409401068381" Properties=species:S:1:pos:R:3:initial_magmoms:R:1 pbc="T T T"
Si       1.35731538       1.35549090      -1.35674514       0.00000000
Si       1.35742941      -1.35718506       1.35729817       0.00000000
Si      -1.35736425       1.35822762       1.35781663       0.00000000
Si      -1.35988920      -1.35915615      -1.35643406       0.00000000
Si      -2.71119357      -0.00102627      -2.71456177       0.00000000
Si       2.71446786      -2.71423980       0.00089867       0.00000000
Si       0.00231318      -2.71414206       2.71480372       0.00000000
Si       2.71515204       0.00130320      -2.71404331       0.00000000
Si       0.00329058      -2.71476108      -2.71449264       0.00000000
Si      -2.71480995      -2.71471221       0.00044933       0.00000000
