10
Lattice="16.28999089631971 0.0 0.0 0.0 16.28999089631971 0.0 0.0 0.0 34.56409401068381" Properties=species:S:1:pos:R:3:initial_magmoms:R:1 pbc="T T T"
Si      -1.35511623      -1.35695700       1.35750555       0.00000000
Si       1.35703845      -1.35705474      -1.35639950       0.00000000
Si      -1.35742941       1.35718506      -1.35729817       0.00000000
Si       1.35713619       1.35725022       1.35816227       0.00000000
Si      -0.00011403       2.71267596      -2.71404331       0.00000000
Si       2.71396287      -0.00001629      -2.71276443       0.00000000
Si       0.00004887      -2.71420722      -2.71300638       0.00000000
Si      -0.00332316      -2.71383255       2.71400874       0.00000000
Si      -2.71463076      -2.71435383       0.00055303       0.00000000
Si       2.71515204      -2.71479366       0.00058759       0.00000000
