10
Lattice="16.28999089631971 0.0 0.0 0.0 16.28999089631971 0.0 0.0 0.0 34.56409401068381" Properties=species:S:1:pos:R:3:initial_magmoms:R:1 pbc="T T T"
Si      -1.35633798       1.35762489      -1.35657232       0.00000000
Si       1.35783666      -1.35816246      -1.35691796       0.00000000
Si       1.35404109       1.36453185       1.35712535       0.00000000
Si      -1.36647036      -1.34340372       1.37986853       0.00000000
Si       2.65543290      -0.05890464       2.69593171       0.00000000
Si       0.00470781      -2.65346181       2.75431050       0.00000000
Si      -2.71409319       0.00000000      -2.71456177       0.00000000
Si       0.00065160       2.71420722      -2.71449264       0.00000000
Si       2.71564074      -0.00017919      -2.71425069       0.00000000
Si      -2.71406061      -2.71603170       0.00362923       0.00000000
