10
Lattice="16.28999089631971 0.0 0.0 0.0 16.28999089631971 0.0 0.0 0.0 34.56409401068381" Properties=species:S:1:pos:R:3:initial_magmoms:R:1 pbc="T T T"
Si       1.44466236       1.46091978       1.10746876       0.00000000
Si      -0.18927351      -2.05659621       1.12108702       0.00000000
Si      -2.34406584       0.47493495       0.00663631       0.00000000
Si       1.34063442       0.21449043      -1.97264308       0.00000000
Si      -2.50836678      -1.33768593      -1.50388457       0.00000000
Si       3.02671458       1.10780145      -0.63480451       0.00000000
Si      -1.23874047      -3.17597985      -0.63508102       0.00000000
Si      -0.13742244       1.39649283      -3.31189877       0.00000000
Si      -1.26628686      -1.41903819       3.10859266       0.00000000
Si      -2.99151189      -0.03015279       2.23823372       0.00000000
