10
Lattice="16.28999089631971 0.0 0.0 0.0 16.28999089631971 0.0 0.0 0.0 34.56409401068381" Properties=species:S:1:pos:R:3:initial_magmoms:R:1 pbc="T T T"
Si      -1.34921925       1.30170132      -1.41857688       0.00000000
Si      -1.37018448      -1.34571690       1.36924698       0.00000000
Si       1.34592867       1.36681245       1.37463898       0.00000000
Si       1.34413677      -1.43386209      -1.47289784       0.00000000
Si      -2.59089192      -0.40907448      -2.56219141       0.00000000
Si       2.70689301      -2.70513369       0.00413041       0.00000000
Si       2.70796815       2.71705100       0.01002705       0.00000000
Si      -2.72899854       2.70656479       0.00800159       0.00000000
Si       2.70282051       0.01182654       2.73525530       0.00000000
Si      -0.01324377      -2.70552465       2.73470228       0.00000000
