10
Lattice="16.28999089631971 0.0 0.0 0.0 16.28999089631971 0.0 0.0 0.0 34.56409401068381" Properties=species:S:1:pos:R:3:initial_magmoms:R:1 pbc="T T T"
Si      -1.35490446       1.35754996       1.35729817       0.00000000
Si      -1.35651717      -1.35647697      -1.35798945       0.00000000
Si       1.35834347       1.35785947      -1.35774750       0.00000000
Si       1.36098093      -1.35708583       1.35695253       0.00000000
Si       0.01097946       2.70975028       2.69928443       0.00000000
Si      -2.71365336       0.00076889      -2.71487285       0.00000000
Si       0.00110772      -2.71440337      -2.71514936       0.00000000
Si       2.71713195      -2.71254631      -0.00082954       0.00000000
Si       2.71400752       2.71600564      -0.00038021       0.00000000
Si       0.00091224       2.71540291      -2.71487285       0.00000000
