10
Lattice="16.28999089631971 0.0 0.0 0.0 16.28999089631971 0.0 0.0 0.0 34.56409401068381" Properties=species:S:1:pos:R:3:initial_magmoms:R:1 pbc="T T T"
Si      -1.41459102       1.25908668       1.33859898       0.00000000
Si       1.34625927       1.36243044      -1.34516616       0.00000000
Si      -1.36588392      -1.35220032      -1.34198626       0.00000000
Si       1.33980363      -1.37253024       1.35442934       0.00000000
Si      -0.40677759      -2.28097467       2.63897005       0.00000000
Si      -2.07852255      -0.50197635       2.81801216       0.00000000
Si       0.05212800       2.50339833       2.68013591       0.00000000
Si       2.70302806       0.00625536      -2.69966464       0.00000000
Si      -0.01097946      -2.70975028      -2.69928443       0.00000000
Si      -0.00996948       2.72033226      -2.70004484       0.00000000
