10
Lattice="16.28999089631971 0.0 0.0 0.0 16.28999089631971 0.0 0.0 0.0 34.56409401068381" Properties=species:S:1:pos:R:3:initial_magmoms:R:1 pbc="T T T"
Si       0.28067670      -2.26842292       0.57984757       0.00000000
Si      -1.72199961       0.98413526       1.27873394       0.00000000
Si       0.16658154       0.51484969      -2.29706184       0.00000000
Si       1.94605227       1.15921530       0.70424381       0.00000000
Si      -0.27422586      -2.20282309      -2.60361096       0.00000000
Si       0.79566876       2.83144570      -2.03624104       0.00000000
Si       1.44145323      -3.08310211      -1.26228142       0.00000000
Si       1.09877679       2.29025932       2.60388748       0.00000000
Si      -0.92675439       3.14695042       1.58483372       0.00000000
Si       3.63820275      -0.45568801       0.68585570       0.00000000
