10
Lattice="16.28999089631971 0.0 0.0 0.0 16.28999089631971 0.0 0.0 0.0 34.56409401068381" Properties=species:S:1:pos:R:3:initial_magmoms:R:1 pbc="T T T"
Si      -1.34625927      -1.36243044       1.34516616       0.00000000
Si       1.35676879      -1.35617508      -1.35449847       0.00000000
Si       1.36013919       1.35280305       1.35567365       0.00000000
Si      -1.35622875       1.35790182      -1.35487868       0.00000000
Si      -0.02481447       2.68682373       2.65936288       0.00000000
Si      -2.71378848       0.00105885      -2.71200402       0.00000000
Si       0.00110474      -2.71432125      -2.71186577       0.00000000
Si      -2.71095402       2.71544526       0.00176277       0.00000000
Si      -2.71214319      -2.71463076       0.00317990       0.00000000
Si       0.00125994       2.71555929      -2.71155469       0.00000000
