10
Lattice="16.28999089631971 0.0 0.0 0.0 16.28999089631971 0.0 0.0 0.0 34.56409401068381" Properties=species:S:1:pos:R:3:initial_magmoms:R:1 pbc="T T T"
Si      -1.35089712      -1.35826020      -1.37022514       0.00000000
Si       1.37041254       1.35516510      -1.36987950       0.00000000
Si       1.32051627      -1.46362392       1.31212287       0.00000000
Si      -1.34356662       1.41752322       1.38515684       0.00000000
Si      -2.59791291      -0.02570562       2.77300968       0.00000000
Si      -2.69070075      -2.70813105      -0.02685632       0.00000000
Si       2.71316466       2.71277370      -0.02167170       0.00000000
Si      -2.70269019      -0.00138465      -2.72672834       0.00000000
Si       0.00956223       2.71282257      -2.72607162       0.00000000
Si       0.01027899      -2.71595025      -2.72551859       0.00000000
