10
Lattice="16.28999089631971 0.0 0.0 0.0 16.28999089631971 0.0 0.0 0.0 34.56409401068381" Properties=species:S:1:pos:R:3:initial_magmoms:R:1 pbc="T T T"
Si      -0.24498531      -2.31756201      -0.27951998       0.00000000
Si      -1.94968494       0.69934599       1.22761361       0.00000000
Si       1.95173748       0.01150074       1.42165655       0.00000000
Si      -0.60763329      -0.06753834      -2.34465663       0.00000000
Si      -1.45109691       2.94313059       1.48784682       0.00000000
Si      -1.27702197       2.13288228      -2.73989726       0.00000000
Si      -1.93020210      -2.29801401      -2.36625920       0.00000000
Si       1.62443880      -1.52498835       3.18459915       0.00000000
Si      -2.01412818      -0.25251129       3.39834362       0.00000000
Si      -1.67980851       3.49470999      -0.80956066       0.00000000
