10
Lattice="16.28999089631971 0.0 0.0 0.0 16.28999089631971 0.0 0.0 0.0 34.56409401068381" Properties=species:S:1:pos:R:3:initial_magmoms:R:1 pbc="T T T"
Si       1.46482938       1.76761161       0.44698311       0.00000000
Si       1.53072243      -1.14422589      -1.38750720       0.00000000
Si      -0.19170072      -0.82872117       2.23356757       0.00000000
Si      -2.10784455       0.12825117      -1.17376272       0.00000000
Si       3.51376929      -1.07118153      -0.06546443       0.00000000
Si       1.85802111       0.39226320      -3.15044980       0.00000000
Si       2.18427723       2.34937638      -1.81067564       0.00000000
Si      -0.98694594      -2.99153633       1.92746778       0.00000000
Si      -2.69498502      -2.11727646      -1.44149635       0.00000000
Si       3.42093258       0.84986559       1.29781333       0.00000000
