10
Lattice="16.28999089631971 0.0 0.0 0.0 16.28999089631971 0.0 0.0 0.0 34.56409401068381" Properties=species:S:1:pos:R:3:initial_magmoms:R:1 pbc="T T T"
Si       1.34993601       1.36208835       1.37565862       0.00000000
Si      -1.36230012      -1.35457866       1.37327370       0.00000000
Si      -1.36275624       1.27127160      -1.47702825       0.00000000
Si       1.27220013      -1.40566410      -1.48240989       0.00000000
Si       2.01577347       0.60299064      -2.39848851       0.00000000
Si      -2.24204157      -0.63368100      -2.67655714       0.00000000
Si       0.44341380       2.32101549      -2.73883411       0.00000000
Si      -0.58440375      -2.38195638      -2.84176604       0.00000000
Si      -2.70689301       2.70513369      -0.00413041       0.00000000
Si       2.70391702      -2.71841004      -0.01464136       0.00000000
