10
Lattice="16.28999089631971 0.0 0.0 0.0 16.28999089631971 0.0 0.0 0.0 34.56409401068381" Properties=species:S:1:pos:R:3:initial_magmoms:R:1 pbc="T T T"
Si       0.83306897      -0.29923101       2.08988455       0.00000000
Si      -0.88257332      -1.96708266      -0.84405565       0.00000000
Si       1.78459556       1.07144217      -1.08987562       0.00000000
Si      -1.81465454       1.56206439       0.41508044       0.00000000
Si      -1.91821007      -0.38172357      -2.28793692       0.00000000
Si       2.75798822       1.04987421       1.87555248       0.00000000
Si      -0.83948627       3.42173079      -0.84851442       0.00000000
Si       0.71905526       2.61232956      -2.40936065       0.00000000
Si      -3.51249608       0.71099334      -0.98092954       0.00000000
Si       0.79982597      -2.91468825      -2.19651484       0.00000000
