10
Lattice="16.28999089631971 0.0 0.0 0.0 16.28999089631971 0.0 0.0 0.0 34.56409401068381" Properties=species:S:1:pos:R:3:initial_magmoms:R:1 pbc="T T T"
Si      -1.69784154      -0.85107105      -1.39600997       0.00000000
Si      -0.26466363       0.41124105       2.31842247       0.00000000
Si       1.81465454      -1.56206439      -0.41508044       0.00000000
Si       0.97516827       1.85966640      -1.26359486       0.00000000
Si      -0.10355553      -1.94378796      -2.70301735       0.00000000
Si       2.64772351      -1.86129540       1.67480411       0.00000000
Si       1.45067241      -0.82217259       3.39578588       0.00000000
Si       0.93208122      -3.52914705      -1.25913608       0.00000000
Si       0.08161290       2.68350057       2.78040640       0.00000000
Si      -2.85426864       0.94649787      -2.52459740       0.00000000
