10
Lattice="16.28999089631971 0.0 0.0 0.0 16.28999089631971 0.0 0.0 0.0 34.56409401068381" Properties=species:S:1:pos:R:3:initial_magmoms:R:1 pbc="T T T"
Si       0.19460034       1.31979951      -1.90112993       0.00000000
Si      -2.07862029      -1.01915127       0.40792567       0.00000000
Si       0.01440036       1.75822857       1.60173558       0.00000000
Si       2.03380650      -1.23432588      -0.10293193       0.00000000
Si       2.19421413      -1.32396975       2.26346553       0.00000000
Si       1.73007945       0.87794955       2.94306512       0.00000000
Si      -3.51446976       0.87105888       0.57404079       0.00000000
Si       1.82280213       3.01470885      -1.20725535       0.00000000
Si      -1.98032643      -2.08771011       2.54205228       0.00000000
Si      -2.55402765       2.88857538      -0.23814674       0.00000000
