10
Lattice="16.28999089631971 0.0 0.0 0.0 16.28999089631971 0.0 0.0 0.0 34.56409401068381" Properties=species:S:1:pos:R:3:initial_magmoms:R:1 pbc="T T T"
Si      -1.35430681      -1.34801379       1.38514993       0.00000000
Si       1.36431241       1.36634004       1.38750029       0.00000000
Si       1.26771759      -1.49143095      -1.41318834       0.00000000
Si      -1.43171689       1.31274594      -1.46776853       0.00000000
Si      -2.70983029      -2.70138699       0.00312114       0.00000000
Si      -2.70391702       2.71841004       0.01464136       0.00000000
Si       2.71315047       2.71029762       0.01022752       0.00000000
Si       2.73111834      -2.70749574       0.01326916       0.00000000
Si       2.62010199      -0.19536597      -2.82124878       0.00000000
Si       0.00654227      -2.70967860       2.74417630       0.00000000
