10
Lattice="16.28999089631971 0.0 0.0 0.0 16.28999089631971 0.0 0.0 0.0 34.56409401068381" Properties=species:S:1:pos:R:3:initial_magmoms:R:1 pbc="T T T"
Si      -0.78975549      -0.38890746       2.17055719       0.00000000
Si       1.94157252       1.30844538       0.25439187       0.00000000
Si      -1.62005679       1.12703994      -1.29283609       0.00000000
Si       0.33073587      -1.98285138      -1.25070244       0.00000000
Si      -0.76862736       1.91632302       2.76671902       0.00000000
Si       0.32601177      -1.02170880      -3.40798701       0.00000000
Si      -3.51677479      -0.20069280      -0.83067934       0.00000000
Si       2.58901857       1.81353312      -1.97720554       0.00000000
Si      -1.90402407       3.20790825      -0.18913483       0.00000000
Si       3.66679755      -0.08044002       1.12475081       0.00000000
