10
Lattice="16.28999089631971 0.0 0.0 0.0 16.28999089631971 0.0 0.0 0.0 34.56409401068381" Properties=species:S:1:pos:R:3:initial_magmoms:R:1 pbc="T T T"
Si       1.62005679      -1.12703994       1.29283609       0.00000000
Si      -1.89671800      -1.32773274       0.46215676       0.00000000
Si      -0.28396728       2.08086831       1.10370127       0.00000000
Si       0.42658623      -0.32418729      -2.34099283       0.00000000
Si       1.94606856      -2.14874874      -2.11515092       0.00000000
Si       1.95079266      -3.10989132       0.04213365       0.00000000
Si      -3.59802836       0.36061173       0.67234113       0.00000000
Si      -2.28220310      -2.45755827      -1.63882287       0.00000000
Si      -1.19650702       1.65736089       3.23627249       0.00000000
Si       0.83030130      -1.51594740       3.46339328       0.00000000
