10
Lattice="16.28999089631971 0.0 0.0 0.0 16.28999089631971 0.0 0.0 0.0 34.56409401068381" Properties=species:S:1:pos:R:3:initial_magmoms:R:1 pbc="T T T"
Si      -1.35631278      -1.35016407      -1.35658269       0.00000000
Si       1.35783992      -1.35555606       1.35871529       0.00000000
Si      -1.35588579       1.35893664       1.35836965       0.00000000
Si       1.36877051       1.36026321      -1.38408881       0.00000000
Si       2.71515530      -2.70972747      -0.00324903       0.00000000
Si      -2.71629627      -2.71109583       0.00352554       0.00000000
Si      -2.71152330       2.71639890      -0.00003456       0.00000000
Si       0.00075586      -2.71319724       2.71552956       0.00000000
Si      -2.71344552       0.00130320       2.71580608       0.00000000
Si       2.71080587       2.71907697      -0.00228123       0.00000000
