10
Lattice="16.28999089631971 0.0 0.0 0.0 16.28999089631971 0.0 0.0 0.0 34.56409401068381" Properties=species:S:1:pos:R:3:initial_magmoms:R:1 pbc="T T T"
Si       1.35667663      -1.35702216      -1.35760924       0.00000000
Si      -1.35781797      -1.35674523       1.35750555       0.00000000
Si      -1.35752475       1.35747828      -1.35733273       0.00000000
Si       1.35849948       1.35933534       1.35698709       0.00000000
Si       2.71376069       0.00061902      -2.71442351       0.00000000
Si      -2.71438401      -0.00004887      -2.71414700       0.00000000
Si      -0.00178668      -2.71451673      -2.71452720       0.00000000
Si       0.00234846       2.71479582       2.71476915       0.00000000
Si       2.71441229       2.71546627      -0.00055303       0.00000000
Si       0.00003498       2.71511172      -2.71476915       0.00000000
