10
Lattice="16.28999089631971 0.0 0.0 0.0 16.28999089631971 0.0 0.0 0.0 34.56409401068381" Properties=species:S:1:pos:R:3:initial_magmoms:R:1 pbc="T T T"
Si      -1.53519403       1.43345484      -1.18793401       0.00000000
Si      -0.87360012      -2.11364379       0.85798499       0.00000000
Si      -0.10845882       1.27537668       2.17429011       0.00000000
Si       2.59853193      -0.75919545      -0.20040273       0.00000000
Si      -2.30455282       0.89896365       1.55579987       0.00000000
Si      -2.08092370      -1.23113304       2.63579015       0.00000000
Si       2.91441132      -0.49515084       2.29730379       0.00000000
Si      -0.03681540       2.64911238      -2.68646114       0.00000000
Si      -0.10484244      -0.51857586       3.75393922       0.00000000
Si      -2.75366879       0.01671354      -2.62282861       0.00000000
