10
Lattice="16.28999089631971 0.0 0.0 0.0 16.28999089631971 0.0 0.0 0.0 34.395419527814205" Properties=species:S:1:pos:R:3:initial_magmoms:R:1 pbc="T T T"
Si      -1.35775521       1.35415303      -1.35827588       0.00000000
Si       1.35835794       1.35579018       1.35755357       0.00000000
Si      -1.35666378      -1.35881356       1.35738159       0.00000000
Si       1.35928647      -1.36102900      -1.36350398       0.00000000
Si      -2.70668124      -0.00271993      -2.71984340       0.00000000
Si       0.00068418       2.71289542       2.71472879       0.00000000
Si      -2.71513575       2.71256962       0.00024077       0.00000000
Si       2.71459818       2.71317235       0.00134142       0.00000000
Si      -2.71427238      -0.00162923       2.71469440       0.00000000
Si       2.71520091      -0.00147193       2.71479759       0.00000000
