10
Lattice="16.28999089631971 0.0 0.0 0.0 16.28999089631971 0.0 0.0 0.0 34.395419527814205" Properties=species:S:1:pos:R:3:initial_magmoms:R:1 pbc="T T T"
Si       1.39183389      -1.38342825       1.31517839       0.00000000
Si       1.36686132       1.34990343      -1.37485448       0.00000000
Si      -1.34812782      -1.36620972      -1.37942907       0.00000000
Si      -1.35918873       1.36344042       1.52691671       0.00000000
Si      -2.70123712       2.69858511      -0.00096307       0.00000000
Si      -2.70333202      -2.70819295       0.00178856       0.00000000
Si      -2.70378488      -0.00821016      -2.73663869       0.00000000
Si       0.01084914       2.70793557      -2.73608836       0.00000000
Si       2.71748151      -2.72772792      -0.04385418       0.00000000
Si       2.74186764       2.70767493      -0.00670711       0.00000000
