10
Lattice="16.28999089631971 0.0 0.0 0.0 16.28999089631971 0.0 0.0 0.0 34.395419527814205" Properties=species:S:1:pos:R:3:initial_magmoms:R:1 pbc="T T T"
Si      -1.06521939      -2.08131922      -0.49515674       0.00000000
Si       2.23710570      -0.86878154       0.04330386       0.00000000
Si      -0.55923570       2.12854914       1.18966944       0.00000000
Si       0.62377668       1.54939077      -2.11841507       0.00000000
Si      -2.45026035      -0.73313471      -1.96573372       0.00000000
Si       2.48324760      -0.08330706      -2.17403250       0.00000000
Si      -0.07356564       3.39376086      -0.81627255       0.00000000
Si       2.89499364       0.24151554       2.02052565       0.00000000
Si      -0.99349452       0.47850246      -3.51493868       0.00000000
Si      -2.87492436       1.67115852       1.83637247       0.00000000
