10
Lattice="16.28999089631971 0.0 0.0 0.0 16.28999089631971 0.0 0.0 0.0 34.395419527814205" Properties=species:S:1:pos:R:3:initial_magmoms:R:1 pbc="T T T"
Si       1.35684297       1.35728280      -1.35755357       0.00000000
Si      -1.35795069      -1.35817875      -1.35758797       0.00000000
Si      -1.35814617       1.35769005       1.35851664       0.00000000
Si       1.35601218      -1.35803214       1.36123388       0.00000000
Si      -0.00029322       2.71438641      -2.71517593       0.00000000
Si      -2.71539802       2.71423980      -0.00051593       0.00000000
Si       2.71458189      -0.00055386      -2.71524473       0.00000000
Si       2.71497285      -2.71498914      -0.00051593       0.00000000
Si       2.71520091       2.71500543      -0.00037835       0.00000000
Si      -2.71556255      -0.00042354      -2.71510714       0.00000000
