10
Lattice="16.28999089631971 0.0 0.0 0.0 16.28999089631971 0.0 0.0 0.0 34.395419527814205" Properties=species:S:1:pos:R:3:initial_magmoms:R:1 pbc="T T T"
Si      -1.45681470       1.44519993       1.20115751       0.00000000
Si      -1.24028802      -2.05917003      -0.10019391       0.00000000
Si       2.26354437      -0.00446346       0.92059392       0.00000000
Si       0.60202953       0.72009945      -2.25634078       0.00000000
Si       2.68310961      -1.85183091      -0.66125231       0.00000000
Si       0.76957218      -3.26176299      -0.39203921       0.00000000
Si       2.34966960       2.29025997      -1.76844148       0.00000000
Si      -1.51065315       1.48944357      -3.14965912       0.00000000
Si       3.09275424       2.21024349       0.43468955       0.00000000
Si       2.22317775      -0.27947124       3.28012102       0.00000000
