10
Lattice="16.28999089631971 0.0 0.0 0.0 16.28999089631971 0.0 0.0 0.0 34.395419527814205" Properties=species:S:1:pos:R:3:initial_magmoms:R:1 pbc="T T T"
Si      -1.33397181      -1.87191648       0.25954798       0.00000000
Si       2.11444200      -0.71827497       0.73895161       0.00000000
Si       0.04036662       0.27500778      -2.35952710       0.00000000
Si      -1.98469215       0.31540698       2.93874629       0.00000000
Si       3.70147896       0.95089617       0.37876257       0.00000000
Si       0.86957649       2.48971473      -2.84543146       0.00000000
Si      -0.86066586      -3.51301995      -1.43019674       0.00000000
Si      -2.22317775       0.27947124      -3.28012102       0.00000000
Si       1.41679017       2.44542222       2.88237216       0.00000000
Si       0.61633215       3.89609559       0.87405689       0.00000000
