10
Lattice="16.28999089631971 0.0 0.0 0.0 16.28999089631971 0.0 0.0 0.0 34.395419527814205" Properties=species:S:1:pos:R:3:initial_magmoms:R:1 pbc="T T T"
Si       1.35567009      -1.35461124      -1.36199058       0.00000000
Si      -1.36231641      -1.35312885       1.35886060       0.00000000
Si      -1.36026387       1.35956340      -1.36236893       0.00000000
Si       1.37272572       1.35964485       1.39088275       0.00000000
Si      -2.70990666       0.09624132       2.66592167       0.00000000
Si       0.03477915      -2.67753843       2.73856483       0.00000000
Si       2.71173114       2.71437012       0.00024077       0.00000000
Si       2.71314837      -2.71423980      -0.00333636       0.00000000
Si      -2.71767699      -2.71192662      -0.00309559       0.00000000
Si      -0.00268785      -2.71233387      -2.71916581       0.00000000
