10
Lattice="16.28999089631971 0.0 0.0 0.0 16.28999089631971 0.0 0.0 0.0 34.395419527814205" Properties=species:S:1:pos:R:3:initial_magmoms:R:1 pbc="T T T"
Si      -1.03159683      -1.44454833       1.49630477       0.00000000
Si       1.33670853      -1.39233888      -1.37079582       0.00000000
Si      -1.39709556       1.32440958      -1.37970423       0.00000000
Si       1.12014927       1.50444666       1.51811148       0.00000000
Si      -2.27107035       0.34217145       2.62292737       0.00000000
Si       0.90660366      -2.56818366       2.64975581       0.00000000
Si      -0.03477915       2.67753843      -2.73856483       0.00000000
Si       2.67836922      -0.03670137      -2.74190119       0.00000000
Si       2.80746747       2.65002462       0.24118082       0.00000000
Si      -0.03829779      -2.75011038      -2.73894318       0.00000000
