10
Lattice="16.28999089631971 0.0 0.0 0.0 16.28999089631971 0.0 0.0 0.0 34.395419527814205" Properties=species:S:1:pos:R:3:initial_magmoms:R:1 pbc="T T T"
Si      -1.38735414      -1.14476346       1.62503800       0.00000000
Si      -1.46782674       0.14213025      -2.03710426       0.00000000
Si       1.35602847       1.57666023       1.50590251       0.00000000
Si       2.14483914      -1.20410793      -1.75096860       0.00000000
Si      -1.36269108       2.57338017      -2.25076872       0.00000000
Si       2.53780281       1.30784265      -2.34979319       0.00000000
Si       0.01182654      -2.35752138       3.11027776       0.00000000
Si      -2.36742570      -3.11088501       0.42686474       0.00000000
Si       2.94529716      -2.65478130       0.25734667       0.00000000
Si       3.08223090       2.71702539       0.27127683       0.00000000
