10
Lattice="16.28999089631971 0.0 0.0 0.0 16.28999089631971 0.0 0.0 0.0 34.395419527814205" Properties=species:S:1:pos:R:3:initial_magmoms:R:1 pbc="T T T"
Si      -1.36094805      -1.34596125       1.39466625       0.00000000
Si       1.35360126       1.36790388       1.39274011       0.00000000
Si      -1.40804244       1.38956958      -1.43508433       0.00000000
Si       1.34073216      -1.48180356      -1.57924593       0.00000000
Si       2.69721675      -2.71278999       0.01557769       0.00000000
Si      -2.71423980      -2.70457983       0.00887746       0.00000000
Si       2.71959921       2.71856283       0.00608111       0.00000000
Si      -2.71236645       2.72621295       0.03640069       0.00000000
Si      -0.00457749      -2.70394452       2.75583134       0.00000000
Si       2.70932022       0.01071882       2.75731035       0.00000000
