10
Lattice="16.28999089631971 0.0 0.0 0.0 16.28999089631971 0.0 0.0 0.0 34.395419527814205" Properties=species:S:1:pos:R:3:initial_magmoms:R:1 pbc="T T T"
Si      -1.35637056       1.35716551       1.35831027       0.00000000
Si      -1.35765747      -1.35747876      -1.35738159       0.00000000
Si       1.35738054       1.35783340      -1.35734720       0.00000000
Si       1.35725022      -1.35993222       1.36340080       0.00000000
Si       0.00711873       2.71684294       2.69467625       0.00000000
Si      -2.72249883      -0.00546041       2.69268132       0.00000000
Si      -2.71450044      -0.00021666      -2.71462561       0.00000000
Si      -2.71450044      -2.71464120      -0.00003440       0.00000000
Si      -2.71415835       2.71521394      -0.00006879       0.00000000
Si       0.00013032       2.71472524      -2.71479759       0.00000000
