10
Lattice="16.28999089631971 0.0 0.0 0.0 16.28999089631971 0.0 0.0 0.0 34.395419527814205" Properties=species:S:1:pos:R:3:initial_magmoms:R:1 pbc="T T T"
Si      -2.28862641       0.55850265       0.09895568       0.00000000
Si       0.13059693      -2.37548925       0.22047476       0.00000000
Si       1.12438467       0.85263489      -1.96872612       0.00000000
Si       0.90640818       1.02188799       2.07390737       0.00000000
Si      -0.37587546       3.18640545       1.09590747       0.00000000
Si       3.25387863       0.76041720       1.67113679       0.00000000
Si       2.46145158      -2.83823018       0.17097973       0.00000000
Si      -3.42320408      -0.61970418      -1.55914524       0.00000000
Si       3.72718458      -0.88068627      -0.01860793       0.00000000
Si       3.13424487      -0.34995807      -2.26057142       0.00000000
