10
Lattice="16.28999089631971 0.0 0.0 0.0 16.28999089631971 0.0 0.0 0.0 34.395419527814205" Properties=species:S:1:pos:R:3:initial_magmoms:R:1 pbc="T T T"
Si      -1.22499171       1.36418976       1.40488170       0.00000000
Si       1.34783460       1.35469269      -1.33781059       0.00000000
Si       1.35293337      -1.17019215       1.49774938       0.00000000
Si      -1.36348929      -1.35967743      -1.33636598       0.00000000
Si      -0.57852306      -1.93981320       2.69794382       0.00000000
Si       0.49054077       2.33929287       2.80460408       0.00000000
Si      -2.43799398      -0.30711537       2.75356124       0.00000000
Si       2.28434670       0.61051662       2.93516916       0.00000000
Si       2.70879894      -0.00091224      -2.69474504       0.00000000
Si      -0.00591327       2.71332756      -2.69567372       0.00000000
