10
Lattice="16.28999089631971 0.0 0.0 0.0 16.28999089631971 0.0 0.0 0.0 34.395419527814205" Properties=species:S:1:pos:R:3:initial_magmoms:R:1 pbc="T T T"
Si      -1.38453597       0.10702530       1.96683437       0.00000000
Si       0.98914509       1.80229302      -1.27400705       0.00000000
Si      -1.71553248      -0.97510311      -1.39972238       0.00000000
Si       1.79380593      -1.72877625       0.13056509       0.00000000
Si      -0.30455784      -1.93207545       2.85578449       0.00000000
Si       2.23373367       0.38447658      -2.75466190       0.00000000
Si      -0.49054077      -2.33929287      -2.80460408       0.00000000
Si      -1.02571614       2.60263701       2.50618925       0.00000000
Si       0.86239260      -3.50948502      -1.30685470       0.00000000
Si      -3.62587707      -0.80203815       1.25109969       0.00000000
