10
Lattice="16.28999089631971 0.0 0.0 0.0 16.28999089631971 0.0 0.0 0.0 34.395419527814205" Properties=species:S:1:pos:R:3:initial_magmoms:R:1 pbc="T T T"
Si       1.83479157       0.85682142      -1.35383886       0.00000000
Si      -0.93141333      -1.78070877      -1.43741978       0.00000000
Si       0.25212033      -0.62151237       2.40200547       0.00000000
Si      -1.79380593       1.72877625      -0.13056509       0.00000000
Si      -2.09836377      -0.20329920       2.72521940       0.00000000
Si       0.43992774       2.11325283      -2.88522698       0.00000000
Si      -2.28434670      -0.61051662      -2.93516916       0.00000000
Si      -2.86286976      -2.55032982      -0.23722534       0.00000000
Si      -0.80466084       3.53106927      -1.40457214       0.00000000
Si      -3.50933841       0.75367314      -1.53028747       0.00000000
