10
Lattice="16.28999089631971 0.0 0.0 0.0 16.28999089631971 0.0 0.0 0.0 34.395419527814205" Properties=species:S:1:pos:R:3:initial_magmoms:R:1 pbc="T T T"
Si      -0.82865601       2.03440923      -0.78473194       0.00000000
Si      -1.54034982      -1.80946062      -0.20403374       0.00000000
Si       1.67330880      -0.54169137      -1.65373270       0.00000000
Si       0.93020787       0.17295093       2.25142223       0.00000000
Si       2.59553457      -1.42377858       1.82509077       0.00000000
Si       0.02031363      -3.57713739       0.26047666       0.00000000
Si       3.56068449      -0.75984705      -0.28458786       0.00000000
Si      -0.83162079       1.68340860      -3.13569457       0.00000000
Si      -3.33554040      -0.96122403       1.14660635       0.00000000
Si       1.57929921       1.29798720      -3.22828709       0.00000000
