10
Lattice="16.28999089631971 0.0 0.0 0.0 16.28999089631971 0.0 0.0 0.0 34.395419527814205" Properties=species:S:1:pos:R:3:initial_magmoms:R:1 pbc="T T T"
Si      -0.11531691      -1.80542070       1.48082682       0.00000000
Si      -1.75272255       1.30114746       0.90071335       0.00000000
Si       2.20789773       0.85038687      -0.07425975       0.00000000
Si      -0.57389670      -0.82445319      -2.15559654       0.00000000
Si       2.36105631       1.54681695      -2.35027473       0.00000000
Si      -0.42725412      -3.68250111       0.13462375       0.00000000
Si       0.99008991       0.08149887      -3.70459513       0.00000000
Si      -1.86973362       0.88003467       3.26942403       0.00000000
Si      -0.30631716      -3.17078334      -2.19456657       0.00000000
Si      -2.53928520       0.17459622      -2.93420609       0.00000000
