10
Lattice="16.28999089631971 0.0 0.0 0.0 16.28999089631971 0.0 0.0 0.0 34.395419527814205" Properties=species:S:1:pos:R:3:initial_magmoms:R:1 pbc="T T T"
Si       1.04472657       1.63176930      -1.33920502       0.00000000
Si      -1.25636625       1.47000960       1.37476849       0.00000000
Si       1.47121506      -1.26809505       1.36733220       0.00000000
Si      -1.85730435      -0.82697814      -1.32415759       0.00000000
Si       2.20416732      -0.14173929      -2.64120996       0.00000000
Si      -2.69404020      -2.65461840      -0.07915078       0.00000000
Si       0.10168218      -2.60537373       2.74784816       0.00000000
Si      -2.61188973       0.11332953       2.74636916       0.00000000
Si      -2.50825275       2.85094548      -0.16565531       0.00000000
Si       2.74028751       2.70308115       0.00050905       0.00000000
