10
Lattice="16.28999089631971 0.0 0.0 0.0 16.28999089631971 0.0 0.0 0.0 34.395419527814205" Properties=species:S:1:pos:R:3:initial_magmoms:R:1 pbc="T T T"
Si      -1.35886293       1.35324288       1.36126828       0.00000000
Si       1.35708732      -1.35979146       1.36071795       0.00000000
Si       1.35552348       1.35668007      -1.37160067       0.00000000
Si      -1.37096640      -1.37026593      -1.38046437       0.00000000
Si       2.61188973      -0.11332953      -2.74636916       0.00000000
Si       2.71384884       2.71080261       0.00312998       0.00000000
Si      -2.71458189       2.71042794      -0.00330196       0.00000000
Si      -0.00039096       2.71208952       2.71751482       0.00000000
Si      -2.71482624      -2.71687878       0.00199494       0.00000000
Si       2.71438641      -0.00252495       2.71772120       0.00000000
