10
Lattice="16.28999089631971 0.0 0.0 0.0 16.28999089631971 0.0 0.0 0.0 34.395419527814205" Properties=species:S:1:pos:R:3:initial_magmoms:R:1 pbc="T T T"
Si       1.75272255      -1.30114746      -0.90071335       0.00000000
Si      -0.11701107      -0.42111279       2.36871068       0.00000000
Si       0.47700378       2.37293172      -0.26353785       0.00000000
Si      -2.14205355      -1.05521733      -0.48060747       0.00000000
Si      -3.35627757       0.35070741       0.92468698       0.00000000
Si       1.63740564      -3.10656816       0.58011347       0.00000000
Si       0.24977457       2.93584896       1.99906290       0.00000000
Si       1.12611141       1.31315319       3.38444238       0.00000000
Si       0.68984892      -2.59403589       2.74358657       0.00000000
Si       1.17882585      -2.12560065      -3.05630990       0.00000000
