10
Lattice="16.28999089631971 0.0 0.0 0.0 16.28999089631971 0.0 0.0 0.0 34.395419527814205" Properties=species:S:1:pos:R:3:initial_magmoms:R:1 pbc="T T T"
Si       0.80685999      -2.17292310       0.37487589       0.00000000
Si       1.24312248       1.73426598       1.01573170       0.00000000
Si       0.11701107       0.42111279      -2.36871068       0.00000000
Si      -2.27828682       0.77227632       0.87017020       0.00000000
Si      -1.47782880      -0.67839705       2.87848548       0.00000000
Si       0.36678564       3.35696175      -0.36964778       0.00000000
Si      -2.02504248      -0.63410454      -2.84931815       0.00000000
Si      -3.23926650       0.77182020      -1.44402371       0.00000000
Si       1.75441671      -2.68545537      -1.78859721       0.00000000
Si       0.29116746      -2.49166953       2.82493178       0.00000000
