10
Lattice="16.28999089631971 0.0 0.0 0.0 16.28999089631971 0.0 0.0 0.0 34.395419527814205" Properties=species:S:1:pos:R:3:initial_magmoms:R:1 pbc="T T T"
Si       1.35777150       1.35715475      -1.35820709       0.00000000
Si      -1.35847197      -1.35884664      -1.35624655       0.00000000
Si       1.35793440      -1.35791811       1.35772555       0.00000000
Si      -1.35827649       1.35789549       1.35748478       0.00000000
Si       0.00066789      -2.71371852       2.71490077       0.00000000
Si       2.71423980      -0.00128691      -2.71438484       0.00000000
Si       2.71477737      -2.71461447       0.00020637       0.00000000
Si       2.71471221       2.71480736      -0.00013758       0.00000000
Si       0.00039096      -2.71208952      -2.71751482       0.00000000
Si      -2.71511946       0.00073305       2.71483198       0.00000000
