10
Lattice="16.28999089631971 0.0 0.0 0.0 16.28999089631971 0.0 0.0 0.0 34.395419527814205" Properties=species:S:1:pos:R:3:initial_magmoms:R:1 pbc="T T T"
Si       1.45882652      -1.19213478       1.37430415       0.00000000
Si       1.79612726       0.79322526      -1.31598796       0.00000000
Si      -1.26278355       1.54965141       1.35612272       0.00000000
Si      -1.10685598      -1.69552836      -1.69115635       0.00000000
Si       0.22652711       1.11593016      -3.11602179       0.00000000
Si      -2.60473746      -2.55433716      -0.00838905       0.00000000
Si      -2.12561598       0.12339675      -3.04919146       0.00000000
Si       0.10435211      -2.52666045       2.74119264       0.00000000
Si      -2.61672690       0.18891513       2.73998880       0.00000000
Si       2.84046286      -2.58444108      -0.07360968       0.00000000
