10
Lattice="16.28999089631971 0.0 0.0 0.0 16.28999089631971 0.0 0.0 0.0 34.395419527814205" Properties=species:S:1:pos:R:3:initial_magmoms:R:1 pbc="T T T"
Si       1.99782189       0.98228278      -0.65268785       0.00000000
Si      -0.02972925      -1.96281468      -1.26623368       0.00000000
Si      -1.76458167       1.59413518       0.03659675       0.00000000
Si       0.24902523      -0.84044997       2.21544461       0.00000000
Si       2.07229977       2.59717076       1.05824446       0.00000000
Si      -0.49122495       3.50976914      -0.81730442       0.00000000
Si       3.54245598      -0.74060856      -0.37786829       0.00000000
Si      -1.08385515      -3.47662809       0.16867523       0.00000000
Si      -1.39044924      -2.49932583       2.26463008       0.00000000
Si      -2.01275982       1.84756360       2.48025509       0.00000000
