10
Lattice="16.28999089631971 0.0 0.0 0.0 16.28999089631971 0.0 0.0 0.0 34.395419527814205" Properties=species:S:1:pos:R:3:initial_magmoms:R:1 pbc="T T T"
Si       0.77913441       0.30979833      -2.29022029       0.00000000
Si      -2.44279953       0.13349818       0.07054504       0.00000000
Si       1.14706035       1.37945512       1.70030412       0.00000000
Si       0.43826616      -2.12936920       1.36360717       0.00000000
Si       3.52874699      -0.09342478      -0.11673812       0.00000000
Si       2.57331731      -1.25598085      -2.40021690       0.00000000
Si      -0.18257832      -1.28020408       3.52460380       0.00000000
Si      -1.10547198      -0.52231183      -3.67879855       0.00000000
Si       0.04685004       1.10684360       3.73190510       0.00000000
Si      -2.07819675      -2.37140602      -2.36231313       0.00000000
