10
Lattice="16.28999089631971 0.0 0.0 0.0 16.28999089631971 0.0 0.0 0.0 34.395419527814205" Properties=species:S:1:pos:R:3:initial_magmoms:R:1 pbc="T T T"
Si      -1.41890787      -1.77449643      -0.61853318       0.00000000
Si      -0.71995284       0.73709969       2.13685103       0.00000000
Si       1.96887456      -1.17859194       0.60522214       0.00000000
Si       0.51220647       1.63272715      -1.67137756       0.00000000
Si       2.94036129      -0.82045629      -1.46844447       0.00000000
Si       0.89764416       2.64746383       2.03827370       0.00000000
Si      -1.03633722      -3.06660294       1.32394923       0.00000000
Si      -0.05269815       0.31177757      -3.51906613       0.00000000
Si       1.32680421      -1.55037861      -3.01221494       0.00000000
Si       2.85210207       1.49334991      -1.80851217       0.00000000
