10
Lattice="16.28999089631971 0.0 0.0 0.0 16.28999089631971 0.0 0.0 0.0 34.395419527814205" Properties=species:S:1:pos:R:3:initial_magmoms:R:1 pbc="T T T"
Si      -1.35733167       1.35744570       1.35720962       0.00000000
Si       1.35788553       1.35721764      -1.35693445       0.00000000
Si       1.35780408      -1.35752715       1.35738159       0.00000000
Si      -1.35777150      -1.35884664      -1.35775994       0.00000000
Si      -2.71399545       0.00022806       2.71386891       0.00000000
Si       2.71204065       0.00144981      -2.71586384       0.00000000
Si       0.00071676      -2.71401174       2.71479759       0.00000000
Si       0.00112401       2.71485882       2.71441924       0.00000000
Si       2.71489140       2.71489140       0.00017198       0.00000000
Si      -2.71487511       2.71495656       0.00003440       0.00000000
