10
Lattice="16.28999089631971 0.0 0.0 0.0 16.28999089631971 0.0 0.0 0.0 34.395419527814205" Properties=species:S:1:pos:R:3:initial_magmoms:R:1 pbc="T T T"
Si       1.35708732       1.35648459      -1.35741599       0.00000000
Si      -1.36096434       1.35560493       1.35693445       0.00000000
Si      -1.35853713      -1.35809730      -1.35727841       0.00000000
Si       1.35633798      -1.35889551       1.36391673       0.00000000
Si      -2.70879894       0.00091224       2.69474504       0.00000000
Si      -0.00071676       2.71401174      -2.71479759       0.00000000
Si      -2.71471221       2.71423980      -0.00092868       0.00000000
Si       2.71464705      -0.00100998      -2.71462561       0.00000000
Si       2.71476108       2.71524978       0.00000000       0.00000000
Si      -2.71578735      -0.00120546      -2.71472879       0.00000000
