10
Lattice="16.28999089631971 0.0 0.0 0.0 16.28999089631971 0.0 0.0 0.0 34.395419527814205" Properties=species:S:1:pos:R:3:initial_magmoms:R:1 pbc="T T T"
Si      -1.20024720      -1.90692369       0.34846019       0.00000000
Si       1.59871689       0.20235438       1.64430834       0.00000000
Si      -1.66532670       1.59672951       0.42633146       0.00000000
Si       0.96514992       0.66393153      -2.10967863       0.00000000
Si       1.82711898       2.47190976       0.96118054       0.00000000
Si      -2.59553457       1.42377858      -1.82509077       0.00000000
Si      -0.29436030       3.06204759       1.78065186       0.00000000
Si       1.72683774       2.79218745      -1.41716087       0.00000000
Si      -2.57522094      -2.15335881      -1.56461411       0.00000000
Si      -0.92222577       0.88208721      -3.47882347       0.00000000
