10
Lattice="16.28999089631971 0.0 0.0 0.0 16.28999089631971 0.0 0.0 0.0 34.395419527814205" Properties=species:S:1:pos:R:3:initial_magmoms:R:1 pbc="T T T"
Si      -1.59871689      -0.20235438      -1.64430834       0.00000000
Si       1.95545879      -0.98163540      -0.82476823       0.00000000
Si       0.22840209       2.26955538      -0.68312781       0.00000000
Si      -0.33249519       0.47460915       2.34755749       0.00000000
Si       2.25165986       2.48596803       0.48150175       0.00000000
Si      -1.89307719       2.85969321       0.13634352       0.00000000
Si       1.66176149       1.70088777       2.66757265       0.00000000
Si       3.53767391       0.83800647      -0.67762454       0.00000000
Si      -2.79896409      -2.10927807      -1.29584815       0.00000000
Si      -3.26404359       1.39437513      -1.21797688       0.00000000
