10
Lattice="16.28999089631971 0.0 0.0 0.0 16.28999089631971 0.0 0.0 0.0 34.395419527814205" Properties=species:S:1:pos:R:3:initial_magmoms:R:1 pbc="T T T"
Si       1.99425668       1.22627862       0.32001516       0.00000000
Si       0.03010392      -1.24934526       2.03373350       0.00000000
Si      -1.71374058       1.68865398       0.06480101       0.00000000
Si       0.33249519      -0.47460915      -2.34755749       0.00000000
Si       0.56089728       1.79494623      -3.03068529       0.00000000
Si      -1.56058200       2.38508406      -2.21121397       0.00000000
Si       1.20068281       2.88712557       1.83664764       0.00000000
Si       2.58415505       2.01135888      -1.86605574       0.00000000
Si      -1.16348067       3.18058992       1.92982488       0.00000000
Si      -2.15513442      -1.48421448       2.93100731       0.00000000
