10
Lattice="16.28999089631971 0.0 0.0 0.0 16.28999089631971 0.0 0.0 0.0 34.395419527814205" Properties=species:S:1:pos:R:3:initial_magmoms:R:1 pbc="T T T"
Si      -1.38038854      -1.23672051       1.52468101       0.00000000
Si      -1.34204839       1.33514469      -1.52787978       0.00000000
Si       1.35918873      -1.36344042      -1.52691671       0.00000000
Si       1.73275101       1.29202506       1.33347676       0.00000000
Si      -2.70158966       2.65082283      -0.10569718       0.00000000
Si      -2.66834663      -2.73245202       0.05486072       0.00000000
Si       2.76434784       2.73657339      -0.16282801       0.00000000
Si       2.75102262      -2.74686867      -0.21173832       0.00000000
Si      -0.02166570      -2.63572200       2.92357790       0.00000000
Si      -2.70061226      -0.01485648      -2.90252789       0.00000000
