10
Lattice="16.28999089631971 0.0 0.0 0.0 16.28999089631971 0.0 0.0 0.0 34.395419527814205" Properties=species:S:1:pos:R:3:initial_magmoms:R:1 pbc="T T T"
Si      -1.60614513       1.35179307       1.32897096       0.00000000
Si       1.01876000      -1.81892511       1.35803511       0.00000000
Si       2.35214309       0.99253341      -0.06683034       0.00000000
Si       0.24377985      -1.16331777      -2.68955133       0.00000000
Si      -1.94145849      -1.39818699      -1.79227752       0.00000000
Si       2.85395003      -0.76541823      -1.63436806       0.00000000
Si       2.12561598      -0.12339675       3.04919146       0.00000000
Si      -2.00617866       3.12478038      -0.44555851       0.00000000
Si       0.19885203      -3.85564752      -0.30195756       0.00000000
Si      -0.44452152       2.77446393       2.86528936       0.00000000
