10
Lattice="16.28999089631971 0.0 0.0 0.0 16.28999089631971 0.0 0.0 0.0 34.395419527814205" Properties=species:S:1:pos:R:3:initial_magmoms:R:1 pbc="T T T"
Si       2.36416348      -0.29346435      -0.09317724       0.00000000
Si      -0.00368154       2.35691865      -0.41370834       0.00000000
Si      -0.55025991      -1.49193594      -1.86502388       0.00000000
Si      -1.05637392      -0.14183703       2.34790144       0.00000000
Si      -1.84520088       2.07036126      -1.94059065       0.00000000
Si      -0.15148071       1.97496702       3.19341012       0.00000000
Si       3.25174694       1.54740339      -1.26750631       0.00000000
Si      -0.78162678       3.52639404       1.45028367       0.00000000
Si       1.16348067      -3.18058992      -1.92982488       0.00000000
Si       3.31651435       0.09280413       2.27408883       0.00000000
