10
Lattice="16.28999089631971 0.0 0.0 0.0 16.28999089631971 0.0 0.0 0.0 34.395419527814205" Properties=species:S:1:pos:R:3:initial_magmoms:R:1 pbc="T T T"
Si       1.30013748      -1.30008861      -1.49520412       0.00000000
Si      -0.97272477      -1.84909419       1.31648542       0.00000000
Si       1.88460639       0.83211016       1.38857826       0.00000000
Si      -1.41377652       1.42500100      -1.46926996       0.00000000
Si       2.62425384      -2.55886578       0.07061384       0.00000000
Si       2.69322083       2.77367291       0.09345241       0.00000000
Si       1.10547198       0.52231183       3.67879855       0.00000000
Si      -2.63655279      -2.84881149       0.05035492       0.00000000
Si      -0.05664033      -2.65175136      -2.86761652       0.00000000
Si       2.65741258       0.06225372      -2.86448653       0.00000000
