10
Lattice="16.28999089631971 0.0 0.0 0.0 16.28999089631971 0.0 0.0 0.0 34.395419527814205" Properties=species:S:1:pos:R:3:initial_magmoms:R:1 pbc="T T T"
Si       0.20967203       1.79748747      -1.45300091       0.00000000
Si      -0.76901832       0.29918214       2.22507533       0.00000000
Si      -1.46976525      -1.49382558      -1.13171312       0.00000000
Si       2.24489951      -0.81417420      -0.00495294       0.00000000
Si      -0.07957665      -3.40698834      -0.49347136       0.00000000
Si      -1.35597960       2.52358164       2.17685292       0.00000000
Si       1.23997755       0.07843635       3.41907859       0.00000000
Si       2.11708817      -2.78365149      -1.27689627       0.00000000
Si       2.62610180      -1.39777974       2.25131905       0.00000000
Si       1.09687316       1.15486326      -3.64147950       0.00000000
