10
Lattice="16.28999089631971 0.0 0.0 0.0 16.28999089631971 0.0 0.0 0.0 34.395419527814205" Properties=species:S:1:pos:R:3:initial_magmoms:R:1 pbc="T T T"
Si      -0.58696128       2.22439950      -0.04822241       0.00000000
Si       2.00899587      -0.22074579       1.19400326       0.00000000
Si      -1.93904757      -1.21653720       0.56009532       0.00000000
Si       0.76901832      -0.29918214      -2.22507533       0.00000000
Si       2.79647891       2.06454573       1.30578844       0.00000000
Si      -1.33175637      -3.43631034       0.47926604       0.00000000
Si      -2.57269599       2.45926872      -1.25103090       0.00000000
Si      -1.70352675       2.76731262       1.92064130       0.00000000
Si       3.39512012      -1.69696188       0.02624372       0.00000000
Si       1.36528675       3.55600926       0.14043658       0.00000000
