10
Lattice="16.28999089631971 0.0 0.0 0.0 16.28999089631971 0.0 0.0 0.0 34.395419527814205" Properties=species:S:1:pos:R:3:initial_magmoms:R:1 pbc="T T T"
Si       1.11656547      -0.54291312      -1.96886370       0.00000000
Si      -1.94833287      -1.23375573       0.34106517       0.00000000
Si       1.61355708       0.72992232       1.54377048       0.00000000
Si      -1.37950236       1.86215618      -0.50685119       0.00000000
Si      -0.86916924      -0.30804390      -3.17167220       0.00000000
Si      -0.81459774       3.18310577       1.34083739       0.00000000
Si      -0.90409500       2.01110868      -2.78279737       0.00000000
Si      -1.07632917      -3.33775584       0.75907294       0.00000000
Si      -2.56930767      -1.49752341      -2.02939968       0.00000000
Si       1.52529786       3.04372853       1.20370277       0.00000000
