10
Lattice="16.28999089631971 0.0 0.0 0.0 16.28999089631971 0.0 0.0 0.0 34.395419527814205" Properties=species:S:1:pos:R:3:initial_magmoms:R:1 pbc="T T T"
Si      -1.35541419      -1.35586557       1.35775994       0.00000000
Si      -1.35337794       1.36045935      -1.35848225       0.00000000
Si       1.35942575       1.35922131       1.35755357       0.00000000
Si       1.36055465      -1.35617508      -1.36102751       0.00000000
Si      -0.00465267       2.70464499      -2.71402025       0.00000000
Si      -2.71242006      -2.71353933       0.00065351       0.00000000
Si      -2.71307166       0.00174303       2.71507275       0.00000000
Si       0.00230035      -2.71360449       2.71503835       0.00000000
Si      -2.71326714       2.71653669       0.00061912       0.00000000
Si       2.71746766      -2.71407690       0.00003440       0.00000000
