10
Lattice="16.28999089631971 0.0 0.0 0.0 16.28999089631971 0.0 0.0 0.0 34.395419527814205" Properties=species:S:1:pos:R:3:initial_magmoms:R:1 pbc="T T T"
Si       1.35618811       1.35691465      -1.35731280       0.00000000
Si      -1.35802463      -1.35746102      -1.35579940       0.00000000
Si       1.35705148      -1.35728420       1.35714083       0.00000000
Si      -1.35741021       1.35738706       1.35734720       0.00000000
Si       0.00064020      -2.71376806       2.71448803       0.00000000
Si      -2.71294704      -0.00383141      -2.71534791       0.00000000
Si      -0.00155081      -2.71114537      -2.71768680       0.00000000
Si       2.71503475       0.00046264       2.71383451       0.00000000
Si       0.00041702       2.71440922       2.71452242       0.00000000
Si       2.71466008      -2.71446853      -0.00017198       0.00000000
