10
Lattice="16.28999089631971 0.0 0.0 0.0 16.28999089631971 0.0 0.0 0.0 34.395419527814205" Properties=species:S:1:pos:R:3:initial_magmoms:R:1 pbc="T T T"
Si       1.18095984       1.62411300       1.12765446       0.00000000
Si      -2.31008979       0.42577173       0.15811583       0.00000000
Si       0.53844966      -1.87277985       1.34152530       0.00000000
Si       0.83702907       0.24180876      -2.22961553       0.00000000
Si      -1.23206157      -0.17778906      -3.16843903       0.00000000
Si       3.24454446       0.50244876       1.07582053       0.00000000
Si       0.20931021      -0.46540530       3.48831661       0.00000000
Si      -2.61818582       1.29842703      -2.00067949       0.00000000
Si       2.86099641      -1.81209960       1.46025835       0.00000000
Si      -3.19767324      -1.41509601       1.33244490       0.00000000
