10
Lattice="16.28999089631971 0.0 0.0 0.0 16.28999089631971 0.0 0.0 0.0 34.395419527814205" Properties=species:S:1:pos:R:3:initial_magmoms:R:1 pbc="T T T"
Si       0.68810589       1.85836320      -1.26416366       0.00000000
Si      -1.37027839       1.26425061       1.43546956       0.00000000
Si      -1.35139071      -1.30310226      -1.51910004       0.00000000
Si       1.35744570      -1.44062244       1.40239835       0.00000000
Si      -2.79794501       2.51118495       0.04370284       0.00000000
Si       2.66364306       2.65352697      -0.04156345       0.00000000
Si      -0.00687438       2.63739987       2.78963174       0.00000000
Si      -2.67730127      -2.80075599      -0.13267697       0.00000000
Si       2.71073745      -0.08200386       2.78818713       0.00000000
Si      -2.71900367      -0.07993503       2.79100756       0.00000000
