10
Lattice="16.28999089631971 0.0 0.0 0.0 16.28999089631971 0.0 0.0 0.0 34.395419527814205" Properties=species:S:1:pos:R:3:initial_magmoms:R:1 pbc="T T T"
Si       2.04928200      -1.04433561      -0.13992064       0.00000000
Si      -1.67704296      -1.58112369      -0.02170352       0.00000000
Si      -0.26639363       1.31860449       1.90564489       0.00000000
Si      -0.07333758       1.38395346      -1.97240644       0.00000000
Si      -0.78984183      -2.22374790      -2.21018210       0.00000000
Si       1.79667297       2.59594901      -1.14450822       0.00000000
Si       1.70924454      -2.10663909      -2.27487992       0.00000000
Si      -3.50678807      -0.24104313      -0.67710861       0.00000000
Si       3.44108331       0.81700444      -0.77073299       0.00000000
Si      -1.81621187       2.94606998       1.21199208       0.00000000
