10
Lattice="16.28999089631971 0.0 0.0 0.0 16.28999089631971 0.0 0.0 0.0 34.395419527814205" Properties=species:S:1:pos:R:3:initial_magmoms:R:1 pbc="T T T"
Si       0.89561768      -1.74395853      -1.21498448       0.00000000
Si       0.66379469       1.98687501      -1.09160804       0.00000000
Si       1.24064477       0.25414029       2.09457903       0.00000000
Si      -2.35981080      -0.93444327      -0.36118650       0.00000000
Si      -1.51144389       2.84667750      -1.10337128       0.00000000
Si       0.97740326       2.51818965       2.19260603       0.00000000
Si      -3.13775604       0.23503212       1.50280551       0.00000000
Si       0.58752166      -0.87130323      -3.37377980       0.00000000
Si       0.00803423      -3.58482627      -0.04065541       0.00000000
Si      -2.48293062       2.48854185       0.97029533       0.00000000
