10
Lattice="16.2900001489832 0.0 0.0 0.0 16.2900001489832 0.0 0.0 0.0 29.48209827789657" Properties=species:S:1:pos:R:3:initial_magmoms:R:1 pbc="T T T"
Si       0.70562416       2.12953959       0.70995841       0.00000000
Si      -0.40941169      -0.21408318      -2.34320769       0.00000000
Si       1.85688734      -1.36479250       0.65789302       0.00000000
Si      -1.93133590      -0.96399334       1.14484884       0.00000000
H        1.96231622      -1.38950443      -2.19211194       0.00000000
Si      -2.82414194      -1.60720399      -1.07589021       0.00000000
Si       0.62919148      -3.27223749       1.17123532       0.00000000
Si       0.20975982       1.92332937       3.01708001       0.00000000
Si      -0.70269359      -2.17137557       2.83555873       0.00000000
Si       1.61665871       0.71555455      -3.24129137       0.00000000
