10
Lattice="16.2900001489832 0.0 0.0 0.0 16.2900001489832 0.0 0.0 0.0 29.48209827789657" Properties=species:S:1:pos:R:3:initial_magmoms:R:1 pbc="T T T"
Si       0.60266485       2.22597802       0.28285125       0.00000000
Si       1.68723677      -1.12241359      -1.24591347       0.00000000
Si      -1.69636405       0.36865899      -1.68059753       0.00000000
Si      -0.15146442      -0.50730318       2.42056871       0.00000000
Si      -2.90100468       1.65929942       1.54725000       0.00000000
Si       2.53490321       2.14754656       1.59244606       0.00000000
Si      -0.98619661       3.07360374       1.81388610       0.00000000
Si       0.90961732      -3.37896957      -1.29270156       0.00000000
Si      -0.29051586      -2.90129790       2.35989456       0.00000000
Si      -0.96962968      -3.64324224       0.12733318       0.00000000
