10
Lattice="16.2900001489832 0.0 0.0 0.0 16.2900001489832 0.0 0.0 0.0 29.48209827789657" Properties=species:S:1:pos:R:3:initial_magmoms:R:1 pbc="T T T"
Si       1.42315957      -1.26881182       1.42292399       0.00000000
Si       1.37005417       1.38355858      -1.40048811       0.00000000
Si      -1.30849426      -1.45342639      -1.42437451       0.00000000
Si      -1.36003582       1.34503273       1.50517905       0.00000000
Si      -2.68519475       2.70414002       0.10082878       0.00000000
Si       2.71267598      -2.71475622       0.04717136       0.00000000
Si      -2.63692748      -2.79183887       0.00772431       0.00000000
Si       2.72072324       2.70958088       0.09844073       0.00000000
Si       0.11067426      -2.67247878       2.77668298       0.00000000
Si      -2.81452107      -0.07646526      -2.63751568       0.00000000
