10
Lattice="16.2900001489832 0.0 0.0 0.0 16.2900001489832 0.0 0.0 0.0 29.48209827789657" Properties=species:S:1:pos:R:3:initial_magmoms:R:1 pbc="T T T"
Si       1.05216296      -1.64461235      -1.30812070       0.00000000
Si      -1.68243122       1.14267835      -1.19337637       0.00000000
Si      -1.39745395      -1.49095367       1.34013826       0.00000000
Si       1.85409524       1.81219736       0.12865988       0.00000000
Si      -0.37113507       2.44682318      -2.62856492       0.00000000
Si       2.45667863      -0.36883818      -2.67585420       0.00000000
Si       2.34927866      -2.90340279       0.20130377       0.00000000
Si      -2.65041560      -0.17045856       2.78278577       0.00000000
Si      -2.85672846       2.56069028       0.33538835       0.00000000
Si      -0.09527532      -2.58204810       2.99544015       0.00000000
