10
Lattice="16.2900001489832 0.0 0.0 0.0 16.2900001489832 0.0 0.0 0.0 29.48209827789657" Properties=species:S:1:pos:R:3:initial_magmoms:R:1 pbc="T T T"
Si      -1.76116079      -0.56526301      -1.39326500       0.00000000
Si       0.75957013       2.19359513      -0.35923937       0.00000000
Si      -1.37818288       0.42233454       1.88750290       0.00000000
Si       1.56784735      -1.84833672      -0.49804109       0.00000000
H        2.00389808      -0.10801899       1.66305568       0.00000000
H        1.61222131       0.34300224       2.20293187       0.00000000
Si      -2.44962506      -2.49804546      -0.20613883       0.00000000
Si       0.91295677       2.05926779      -2.76825110       0.00000000
Si      -2.73015516      -1.52556666       1.95640256       0.00000000
Si      -2.52328844       2.44429823       1.39863074       0.00000000
