10
Lattice="16.2900001489832 0.0 0.0 0.0 16.2900001489832 0.0 0.0 0.0 29.48209827789657" Properties=species:S:1:pos:R:3:initial_magmoms:R:1 pbc="T T T"
H        0.35691390      -0.41394519      -1.43091541       0.00000000
Si       1.91865251       1.02988639       0.94182155       0.00000000
Si      -0.94620466      -1.89408719       1.07522215       0.00000000
Si      -1.69101605       1.70347790      -0.04142412       0.00000000
Si      -2.23731749      -0.55296406       2.53047621       0.00000000
Si       0.61991596       2.29737872       2.50621244       0.00000000
Si      -1.84753037       2.23505318      -2.31585007       0.00000000
Si      -3.53719271       0.77157586       1.09103929       0.00000000
Si      -0.91067617       3.55286532       1.24203186       0.00000000
Si      -0.81687835       0.88651810       3.81356661       0.00000000
