10
Lattice="16.2900001489832 0.0 0.0 0.0 16.2900001489832 0.0 0.0 0.0 29.48209827789657" Properties=species:S:1:pos:R:3:initial_magmoms:R:1 pbc="T T T"
Si      -1.37005417      -1.38355858       1.40048811       0.00000000
Si      -1.31971807       1.46394973      -1.37042817       0.00000000
Si       1.32778162      -1.38960217      -1.43943102       0.00000000
Si       1.35066907       1.32602230       1.49892884       0.00000000
Si       2.69777063       2.65619855       0.02708520       0.00000000
Si      -2.61845462       2.73144206       0.19396272       0.00000000
Si       2.65771352      -2.70469388       0.04999869       0.00000000
Si       0.05310540      -2.65237040       2.82341211       0.00000000
Si      -2.67854843      -2.83698498      -0.02388640       0.00000000
Si      -2.73008999      -0.03852585       2.90566716       0.00000000
