10
Lattice="16.2900001489832 0.0 0.0 0.0 16.2900001489832 0.0 0.0 0.0 29.48209827789657" Properties=species:S:1:pos:R:3:initial_magmoms:R:1 pbc="T T T"
Si       1.24310620       1.29313279       1.59863140       0.00000000
Si       1.41307606      -1.50213349      -1.29942348       0.00000000
Si      -0.67494358       0.96656716      -2.16433980       0.00000000
Si      -1.38979765      -1.25141410       1.61525341       0.00000000
Si      -0.15486903      -2.72898227      -2.56570908       0.00000000
Si      -1.55183428      -0.99220762      -3.29332727       0.00000000
Si       2.75454129       2.74993122       0.55364432       0.00000000
Si       2.72875421      -2.85211839       0.10819930       0.00000000
Si       2.62769105      -0.05916528       3.01276678       0.00000000
Si      -0.14276556       2.63000423       3.02684448       0.00000000
