10
Lattice="16.2900001489832 0.0 0.0 0.0 16.2900001489832 0.0 0.0 0.0 29.48209827789657" Properties=species:S:1:pos:R:3:initial_magmoms:R:1 pbc="T T T"
Si       1.36337527       1.43650108       1.21752221       0.00000000
Si      -1.18192096       1.36115983      -1.47964755       0.00000000
Si      -1.77126059      -0.27790740       1.68024375       0.00000000
Si       1.42602661      -1.38811978      -1.44571365       0.00000000
Si      -2.44421678       2.80906392      -0.04634586       0.00000000
Si      -2.46879839      -0.14385699      -2.82067027       0.00000000
Si       0.23376150       2.62975988      -2.84835396       0.00000000
Si       2.84516256      -2.65118123      -0.03464147       0.00000000
Si       2.96785884       2.64285704       0.00518885       0.00000000
Si      -3.57010014       1.25063218       1.30343305       0.00000000
