10
Lattice="16.2900001489832 0.0 0.0 0.0 16.2900001489832 0.0 0.0 0.0 29.48209827789657" Properties=species:S:1:pos:R:3:initial_magmoms:R:1 pbc="T T T"
Si      -0.10111203      -2.31169763       0.00256494       0.00000000
Si      -1.86109994       1.11887866      -0.89050678       0.00000000
Si       0.85494808       0.47197017       2.14031189       0.00000000
Si       1.50361588       1.20948364      -1.36003868       0.00000000
Si       1.11936736       3.27694530      -0.31289351       0.00000000
H       -2.47552616      -1.20282103       2.14841947       0.00000000
Si       0.69310693       2.81745327       2.02164644       0.00000000
H       -2.99183772      -1.33998283       1.57166118       0.00000000
Si       1.99798481      -2.92965879       0.88938646       0.00000000
Si      -1.03584853       3.34461396      -1.32088645       0.00000000
