10
Lattice="16.2900001489832 0.0 0.0 0.0 16.2900001489832 0.0 0.0 0.0 29.48209827789657" Properties=species:S:1:pos:R:3:initial_magmoms:R:1 pbc="T T T"
Si      -1.32085837       1.51821172      -1.19007438       0.00000000
Si       2.17056107       0.06805962      -0.90038328       0.00000000
Si       0.74821600       0.68663980       2.15968163       0.00000000
Si      -1.51651756      -1.98166223       0.01211714       0.00000000
H        1.94639438       0.19015317      -2.38804996       0.00000000
Si       2.61205265      -2.04058316      -0.15772923       0.00000000
Si      -3.20010537       1.25393905       0.22996037       0.00000000
H        1.80066404      -2.39891429      -1.88142958       0.00000000
Si       1.65809396      -2.56220525       1.93048780       0.00000000
Si      -0.75184867      -3.03916017       1.96418583       0.00000000
