10
Lattice="16.2900001489832 0.0 0.0 0.0 16.2900001489832 0.0 0.0 0.0 29.48209827789657" Properties=species:S:1:pos:R:3:initial_magmoms:R:1 pbc="T T T"
Si      -1.78676867       1.29007027      -0.89979364       0.00000000
Si      -0.87689071      -1.95877478      -1.12898747       0.00000000
Si       0.67494358      -0.96656716       2.16433980       0.00000000
Si       1.65928313       1.65960893      -0.79486685       0.00000000
Si       2.08801964      -2.46870065       0.86491632       0.00000000
Si       0.07706799      -1.43715268      -3.21720449       0.00000000
Si       0.52007454      -3.69554943      -0.40136929       0.00000000
Si      -3.53817174       1.20024721       0.55163954       0.00000000
Si      -1.15323427       3.52813710      -1.04407903       0.00000000
Si       0.75978190       3.78638247       0.30248633       0.00000000
