10
Lattice="16.2900001489832 0.0 0.0 0.0 16.2900001489832 0.0 0.0 0.0 29.48209827789657" Properties=species:S:1:pos:R:3:initial_magmoms:R:1 pbc="T T T"
Si      -1.36744777       1.34060185      -1.37495662       0.00000000
Si      -1.27303093      -1.38394954       1.42513515       0.00000000
Si       1.26530947      -1.43716897      -1.39497496       0.00000000
Si       1.37694484       1.39794265       1.33070399       0.00000000
Si       2.56246589       0.00581553      -2.70102012       0.00000000
Si      -2.71977842      -0.11694591      -2.63862421       0.00000000
Si      -2.66571191      -2.71420724       0.04478331       0.00000000
Si      -2.57061089      -0.00630423       2.81394835       0.00000000
Si       2.59483412       0.02950119       2.81489178       0.00000000
Si      -2.70943427       2.71176374      -0.00961116       0.00000000
