10
Lattice="16.2900001489832 0.0 0.0 0.0 16.2900001489832 0.0 0.0 0.0 29.48209827789657" Properties=species:S:1:pos:R:3:initial_magmoms:R:1 pbc="T T T"
H        0.89813287      -1.99772417       0.14652603       0.00000000
Si      -1.78738769      -1.49245723      -0.14231009       0.00000000
Si       1.49224546       0.49673097      -1.74940875       0.00000000
Si      -1.48037005       1.82463640      -0.45431913       0.00000000
Si       0.74691280      -0.42699348       2.32507620       0.00000000
H       -2.84263761      -0.89663419      -1.03470372       0.00000000
Si      -2.94806649      -0.87192226       1.81530124       0.00000000
Si       2.53710236       2.47434514      -0.74622139       0.00000000
Si       1.89239303      -3.08306172      -0.25086317       0.00000000
Si      -1.76090015       2.79711520       1.70822226       0.00000000
