10
Lattice="16.2900001489832 0.0 0.0 0.0 16.2900001489832 0.0 0.0 0.0 29.48209827789657" Properties=species:S:1:pos:R:3:initial_magmoms:R:1 pbc="T T T"
Si       0.33229971       2.31780638       0.33839552       0.00000000
Si      -0.13854645      -1.07781157       2.14567763       0.00000000
Si       2.08339328      -0.22595859      -1.21478038       0.00000000
Si      -1.61158600      -0.67088737      -1.72455534       0.00000000
H        0.06170652      -3.06714639      -0.76385168       0.00000000
H        1.49014405      -2.97813783       0.04817375       0.00000000
Si      -0.42441966       2.99815009      -1.83163432       0.00000000
Si       2.80171713      -2.34118253      -0.34037082       0.00000000
Si       1.33648048       0.20103489      -3.53985658       0.00000000
Si      -1.82578322       0.04460202       3.39159110       0.00000000
