10
Lattice="16.2900001489832 0.0 0.0 0.0 16.2900001489832 0.0 0.0 0.0 29.48209827789657" Properties=species:S:1:pos:R:3:initial_magmoms:R:1 pbc="T T T"
Si       1.32993190      -1.31509171       1.48942971       0.00000000
Si      -1.32778162       1.38960217       1.43943102       0.00000000
Si       1.47105217       1.25284762      -1.43805126       0.00000000
Si      -1.26255646      -1.57428190      -1.34350217       0.00000000
H       -0.16922052      -2.57802610      -1.70937501       0.00000000
Si       2.75721285      -2.64082568       0.14739280       0.00000000
Si       2.75392227       2.70319520       0.00978216       0.00000000
Si       0.15537402       2.60283251      -2.84567404       0.00000000
Si      -2.64749969       2.85355191       0.06900285       0.00000000
Si      -2.69783579       0.00604359       2.83991913       0.00000000
