10
Lattice="16.2900001489832 0.0 0.0 0.0 16.2900001489832 0.0 0.0 0.0 29.48209827789657" Properties=species:S:1:pos:R:3:initial_magmoms:R:1 pbc="T T T"
Si       1.06932448       1.96716413      -0.68985162       0.00000000
Si       0.45126558      -1.54994464      -1.71022704       0.00000000
Si       1.06637599      -0.42394725       2.06362895       0.00000000
Si      -2.37542411       0.27477972      -0.04469486       0.00000000
H        0.02565675       3.00359910      -1.04416747       0.00000000
Si      -1.38577402      -2.99252190       1.11339144       0.00000000
Si       0.30779955      -0.06747318      -3.55848926       0.00000000
Si      -1.23238738      -3.12684924      -1.29562029       0.00000000
Si      -2.94668184      -1.26526060       1.73009797       0.00000000
Si      -2.53726526       2.62026281      -0.16336031       0.00000000
