10
Lattice="16.2900001489832 0.0 0.0 0.0 16.2900001489832 0.0 0.0 0.0 29.48209827789657" Properties=species:S:1:pos:R:3:initial_magmoms:R:1 pbc="T T T"
Si      -1.28757790      -1.35817876       1.46814953       0.00000000
Si      -1.40859631       1.31672071      -1.40128413       0.00000000
Si       1.35746200      -1.34079733      -1.43291842       0.00000000
Si       1.32251995       1.43698978       1.37536937       0.00000000
Si      -2.67511124      -2.68877855       0.04513709       0.00000000
Si      -2.67390578       2.75388969      -0.00630917       0.00000000
Si       2.82704808       0.07358193       2.60987327       0.00000000
Si       2.78897835      -2.65430891      -0.06259049       0.00000000
Si      -0.11143989       2.75970522      -2.70732929       0.00000000
Si       0.15613965      -2.70853832       2.78900650       0.00000000
