10
Lattice="16.2900001489832 0.0 0.0 0.0 16.2900001489832 0.0 0.0 0.0 29.48209827789657" Properties=species:S:1:pos:R:3:initial_magmoms:R:1 pbc="T T T"
Si       1.66500092      -1.66584800       0.33916206       0.00000000
Si       1.13368627       2.09015363      -0.17883841       0.00000000
Si      -0.68150845      -0.07361451       2.29963315       0.00000000
Si      -1.29534823      -0.26238303      -2.05003770       0.00000000
H       -2.51149448      -1.44127405       0.35122024       0.00000000
H       -2.04993362      -2.04025736       0.54568416       0.00000000
H        1.96768541       2.32748264       1.07123204       0.00000000
H        1.49353237      -1.92774233      -2.52926921       0.00000000
Si       3.59925924      -1.17485110      -0.92332035       0.00000000
Si       1.26561898       0.08185725       3.71604160       0.00000000
