10
Lattice="16.2900001489832 0.0 0.0 0.0 16.2900001489832 0.0 0.0 0.0 29.48209827789657" Properties=species:S:1:pos:R:3:initial_magmoms:R:1 pbc="T T T"
H       -2.15710879      -0.42898086       0.05943591       0.00000000
Si       2.27988326       0.21084147      -0.40529041       0.00000000
Si      -0.63661321       2.12138156      -0.92679924       0.00000000
Si      -0.31377798      -2.25792434      -0.78021425       0.00000000
Si       0.02995731       0.36066060       2.39780853       0.00000000
H        2.39158379       1.70310323      -0.32415567       0.00000000
H       -2.10077145      -0.04598667      -2.34264753       0.00000000
H       -1.53005455      -0.37812348      -2.75527898       0.00000000
H        3.20728926      -0.22949352       0.71703411       0.00000000
Si      -3.54377420       0.08938323      -0.33031743       0.00000000
