10
Lattice="16.2900001489832 0.0 0.0 0.0 16.2900001489832 0.0 0.0 0.0 29.48209827789657" Properties=species:S:1:pos:R:3:initial_magmoms:R:1 pbc="T T T"
Si      -1.25296165       1.32049511       1.44264752       0.00000000
Si       1.30217863      -1.09109444       1.65530189       0.00000000
Si      -1.56279745      -1.45986583      -1.14785601       0.00000000
Si       1.39745395       1.49095367      -1.34013826       0.00000000
Si       0.72684352       2.18404430       2.50742298       0.00000000
Si       2.44961692      -0.15365868      -2.64825896       0.00000000
Si      -0.28497726       2.63363202      -2.53351463       0.00000000
Si       2.47349480      -2.68894634       0.38751270       0.00000000
Si      -0.36535212      -1.52375521       3.33811058       0.00000000
Si      -2.29555424      -0.21020127       2.89953488       0.00000000
