10
Lattice="16.2900001489832 0.0 0.0 0.0 16.2900001489832 0.0 0.0 0.0 29.48209827789657" Properties=species:S:1:pos:R:3:initial_magmoms:R:1 pbc="T T T"
Si      -1.21589864      -1.51334916       1.29136897       0.00000000
Si       0.82508851      -1.16524489      -1.84646382       0.00000000
Si      -1.79511729       0.90595207      -1.23966327       0.00000000
Si       1.45173223       1.37614663       1.34062177       0.00000000
Si      -2.52898994       0.01834254       2.63120651       0.00000000
Si      -2.53280180      -2.83885833      -0.27630623       0.00000000
Si      -1.11226166       1.11474100      -3.47505492       0.00000000
Si      -2.57121362       2.83084365      -0.10339372       0.00000000
Si       0.23791545      -2.73988029       2.68109907       0.00000000
Si      -3.53768304      -0.89407666      -1.24302423       0.00000000
