10
Lattice="16.2900001489832 0.0 0.0 0.0 16.2900001489832 0.0 0.0 0.0 29.48209827789657" Properties=species:S:1:pos:R:3:initial_magmoms:R:1 pbc="T T T"
Si      -1.16916589       1.63868768       1.26206966       0.00000000
Si       1.33890769       0.71468629      -1.84935306       0.00000000
Si      -1.72227656      -1.51457905      -0.72080782       0.00000000
Si       1.49195224      -1.18747585       1.51030893       0.00000000
H        0.50396373       3.12707730      -1.63100864       0.00000000
Si       2.43571340      -1.38165265      -2.25207852       0.00000000
Si      -0.04232142       1.43758111       3.40706921       0.00000000
Si       0.00987174      -2.94353787       2.24170082       0.00000000
Si       3.28127844      -1.74136844      -0.03431716       0.00000000
Si      -3.47337012       1.02918592       0.83236808       0.00000000
