10
Lattice="16.2900001489832 0.0 0.0 0.0 16.2900001489832 0.0 0.0 0.0 29.48209827789657" Properties=species:S:1:pos:R:3:initial_magmoms:R:1 pbc="T T T"
Si       1.00449028      -2.11442573       0.34199234       0.00000000
Si      -0.84556504       0.35971578      -2.21776136       0.00000000
Si      -1.78932620       0.55389259       1.54462609       0.00000000
Si       1.95001076       1.54570924      -0.07538573       0.00000000
H        1.83848942      -1.87709672       1.59206279       0.00000000
H        0.78029101      -0.29291049       3.20998138       0.00000000
Si       2.64039725      -2.01341144      -1.25923938       0.00000000
Si      -1.94237075       2.45605473      -1.81503590       0.00000000
Si      -3.28127844       1.74136844       0.03431716       0.00000000
Si       3.80324262       0.18265977      -0.70930980       0.00000000
