10
Lattice="16.2900001489832 0.0 0.0 0.0 16.2900001489832 0.0 0.0 0.0 29.48209827789657" Properties=species:S:1:pos:R:3:initial_magmoms:R:1 pbc="T T T"
Si      -2.04341762      -0.97542892       0.50841878       0.00000000
Si       2.13843719      -0.85517614       0.44391195       0.00000000
Si      -0.37336680       0.26290431      -2.39677666       0.00000000
Si       0.08798229       2.36190341       0.68298229       0.00000000
H        0.46193553      -2.49914666       0.02314345       0.00000000
H        0.08649990      -3.16602669      -0.16563043       0.00000000
Si       1.97825762       2.62433531      -0.73062536       0.00000000
Si      -2.01339515       2.83230975      -0.39609199       0.00000000
Si      -2.45465867       1.34710645      -2.26357654       0.00000000
Si       3.35678259       1.18939807       0.55211125       0.00000000
