10
Lattice="16.2900001489832 0.0 0.0 0.0 16.2900001489832 0.0 0.0 0.0 29.48209827789657" Properties=species:S:1:pos:R:3:initial_magmoms:R:1 pbc="T T T"
Si       1.36765954       1.28005029      -1.44908641       0.00000000
Si      -1.31918050       1.40962095       1.37212634       0.00000000
Si      -1.35141841      -1.34995394      -1.41807713       0.00000000
Si       1.35094600      -1.38484712       1.39748094       0.00000000
Si       2.69455499       2.62228115       0.02694664       0.00000000
Si      -2.63425592      -0.00135207       2.71541918       0.00000000
Si      -2.70865235      -2.71077168      -0.01073148       0.00000000
Si       2.78217727       0.00870701       2.64613625       0.00000000
Si      -2.67204872       0.06745037      -2.79468180       0.00000000
Si      -2.74263330       2.73157076      -0.00734104       0.00000000
