10
Lattice="16.2900001489832 0.0 0.0 0.0 16.2900001489832 0.0 0.0 0.0 29.48209827789657" Properties=species:S:1:pos:R:3:initial_magmoms:R:1 pbc="T T T"
Si       1.31129614       1.30414483      -1.43518854       0.00000000
Si       1.68243122      -1.14267835       1.19337637       0.00000000
Si      -1.36676359      -1.38637675      -1.38875424       0.00000000
Si      -1.17429724       1.41801193       1.52876472       0.00000000
Si       0.28497726      -2.63363202       2.53351463       0.00000000
Si       2.68765617       2.53355114       0.06385822       0.00000000
Si      -2.53016282      -0.09632277       2.71096738       0.00000000
Si      -2.62255970       2.63467946       0.05861041       0.00000000
Si       2.64697190      -0.17371656      -2.73393394       0.00000000
Si       3.53652645       0.66951901       1.32203625       0.00000000
