10
Lattice="16.2900001489832 0.0 0.0 0.0 16.2900001489832 0.0 0.0 0.0 29.48209827789657" Properties=species:S:1:pos:R:3:initial_magmoms:R:1 pbc="T T T"
Si       1.21901329       0.74505574      -1.86539132       0.00000000
Si       0.94139911       0.33570432       2.16094936       0.00000000
Si      -1.69534919       1.64217862      -0.39570872       0.00000000
Si      -1.09503010      -2.14172777       0.11282799       0.00000000
Si      -3.24224760      -1.35050617       0.66414323       0.00000000
Si      -3.38571363       0.13196529      -1.18411900       0.00000000
Si       2.21991977       2.84679156      -1.08526552       0.00000000
Si      -2.62418870       2.16660260       1.68451865       0.00000000
Si      -0.33125715       1.70149052      -3.38699190       0.00000000
Si       0.18031401      -3.58003704       1.64745965       0.00000000
