10
Lattice="16.2900001489832 0.0 0.0 0.0 16.2900001489832 0.0 0.0 0.0 29.48209827789657" Properties=species:S:1:pos:R:3:initial_magmoms:R:1 pbc="T T T"
H       -0.68051476      -1.27692424       0.47822912       0.00000000
H        0.23736159      -1.92850796      -1.28692307       0.00000000
Si       1.26901708      -0.03557736      -2.02099784       0.00000000
Si      -2.11761857       1.10583037      -0.45558686       0.00000000
Si       1.66047881      -0.35018613       1.74401352       0.00000000
H        3.31525938      -0.56760877      -0.85551153       0.00000000
Si      -0.57622618      -3.19510434      -1.44653915       0.00000000
Si      -3.40723272       0.23451084       1.30487767       0.00000000
Si       2.47487456       1.97436431      -1.97474042       0.00000000
Si       0.29914956      -0.43741908       3.71049896       0.00000000
