10
Lattice="16.2900001489832 0.0 0.0 0.0 16.2900001489832 0.0 0.0 0.0 29.48209827789657" Properties=species:S:1:pos:R:3:initial_magmoms:R:1 pbc="T T T"
Si      -0.94574854       2.15497154       0.37722345       0.00000000
Si       1.36132925       0.08723295      -1.96648544       0.00000000
Si      -1.82881316      -1.51146766      -0.40803224       0.00000000
Si       0.81628702      -0.49560696       2.30143156       0.00000000
H        1.71094197      -2.64679922       1.41446263       0.00000000
H       -0.97966432      -0.83950516      -3.23226984       0.00000000
H       -3.05147541       1.40208031      -1.22872541       0.00000000
Si      -3.49018140      -0.49959801       0.96550924       0.00000000
Si      -2.88000687       1.66397465       1.63970586       0.00000000
Si       0.26054357       2.97787719       2.22073905       0.00000000
