10
Lattice="16.2900001489832 0.0 0.0 0.0 16.2900001489832 0.0 0.0 0.0 29.48209827789657" Properties=species:S:1:pos:R:3:initial_magmoms:R:1 pbc="T T T"
Si       2.34875738      -0.20953827      -0.29022178       0.00000000
Si      -0.92488105       1.99762643       1.00183118       0.00000000
Si      -1.21614625      -1.84801907       1.03443838       0.00000000
Si      -0.52549911       0.24992118      -2.37504836       0.00000000
H        2.28944549      -1.90599518       1.59807714       0.00000000
Si      -2.87200848       1.84215467      -0.41457727       0.00000000
Si       2.61505132       1.56382372      -1.79401516       0.00000000
Si      -1.99112672      -2.93907441      -1.13473648       0.00000000
Si      -1.13567365      -1.91365148      -3.04924498       0.00000000
Si      -3.78566571      -0.23368005       0.45765061       0.00000000
