10
Lattice="16.2900001489832 0.0 0.0 0.0 16.2900001489832 0.0 0.0 0.0 29.48209827789657" Properties=species:S:1:pos:R:3:initial_magmoms:R:1 pbc="T T T"
Si      -0.23486922      -1.48926439       0.02597373       0.00000000
H       -1.54282591       0.40122270       1.94617227       0.00000000
Si       0.05931189       1.69645691      -1.88829891       0.00000000
Si       0.33300149      -2.01948761      -2.18603862       0.00000000
Si       1.61701709       2.55340865      -0.35119075       0.00000000
Si      -2.49347774      -1.67161466       0.79578080       0.00000000
Si       1.64827434      -2.38027853       1.14092772       0.00000000
Si       1.03510082       2.38876562       1.96539460       0.00000000
Si      -0.73021555       1.02359845       3.07014779       0.00000000
Si      -2.28944549       1.90599518      -1.59807714       0.00000000
