10
Lattice="16.2900001489832 0.0 0.0 0.0 16.2900001489832 0.0 0.0 0.0 29.48209827789657" Properties=species:S:1:pos:R:3:initial_magmoms:R:1 pbc="T T T"
Si       2.30325127      -0.28012284       0.10985030       0.00000000
Si      -1.00090648      -2.10173582      -0.78012580       0.00000000
Si      -0.08892711       1.39507561      -2.06336361       0.00000000
Si      -0.50161797       1.06780951       2.34668658       0.00000000
Si      -1.94629664       2.43441020      -1.10976514       0.00000000
Si       2.70286289       1.68793724       1.46281327       0.00000000
Si      -2.55117692      -1.14530104      -2.30172638       0.00000000
Si      -3.53258427       0.51104988      -0.95737218       0.00000000
H        2.23876078       2.88406308       0.65013923       0.00000000
Si      -2.21991977      -2.84679156       1.08526552       0.00000000
