10
Lattice="16.2900001489832 0.0 0.0 0.0 16.2900001489832 0.0 0.0 0.0 29.48209827789657" Properties=species:S:1:pos:R:3:initial_magmoms:R:1 pbc="T T T"
Si      -0.09819612       2.17329779       0.83177844       0.00000000
Si      -1.28961415      -0.87131953       1.76046453       0.00000000
Si      -0.94139911      -0.33570432      -2.16094936       0.00000000
Si       2.11761857      -1.10583037       0.45558686       0.00000000
H        1.43710381      -2.38275461       0.93381598       0.00000000
H       -0.63470728      -0.14116914       2.93736042       0.00000000
Si       1.43819524       2.08868753       2.67007571       0.00000000
Si      -0.78227839      -3.15405354       1.78726376       0.00000000
Si       0.77690269       3.57889674      -0.89952830       0.00000000
Si      -2.03642921      -2.47743209      -2.04812137       0.00000000
