10
Lattice="16.2900001489832 0.0 0.0 0.0 16.2900001489832 0.0 0.0 0.0 29.48209827789657" Properties=species:S:1:pos:R:3:initial_magmoms:R:1 pbc="T T T"
Si      -0.81187732       2.17015382      -0.24251974       0.00000000
Si       1.71203015      -0.28044864      -1.67841585       0.00000000
Si       1.01344978       0.59424292       2.11772860       0.00000000
Si      -1.61627752      -1.83003491      -0.16760573       0.00000000
H       -0.91421110       0.41559048      -2.81241528       0.00000000
H       -1.97240951       1.99977671      -1.19449669       0.00000000
Si       3.65493846      -0.85320505      -0.35726407       0.00000000
H       -3.15970617       1.62538363       1.32362828       0.00000000
H       -3.53514180       0.95850361       1.13485441       0.00000000
Si       0.92351269       3.60235434      -1.00230290       0.00000000
