10
Lattice="16.2900001489832 0.0 0.0 0.0 16.2900001489832 0.0 0.0 0.0 29.48209827789657" Properties=species:S:1:pos:R:3:initial_magmoms:R:1 pbc="T T T"
Si      -1.35578413      -0.25435206       1.96206312       0.00000000
Si      -1.94712743      -0.15547176      -1.41640845       0.00000000
Si       0.92488105      -1.99762643      -1.00183118       0.00000000
Si       1.61627752       1.83003491       0.16760573       0.00000000
Si      -1.85820032      -2.53783541       1.57516955       0.00000000
H        0.70206643       2.24562539      -2.64480955       0.00000000
H       -1.91886428       2.78853852       1.30246014       0.00000000
Si      -2.86078467      -2.23130648      -0.54418057       0.00000000
Si       0.39938193      -1.74770525      -3.37687954       0.00000000
Si      -0.29126520      -3.84564550       0.03260720       0.00000000
