10
Lattice="16.2900001489832 0.0 0.0 0.0 16.2900001489832 0.0 0.0 0.0 29.48209827789657" Properties=species:S:1:pos:R:3:initial_magmoms:R:1 pbc="T T T"
Si      -1.24848190      -0.51463368       1.90725590       0.00000000
Si       1.45450479      -1.65970667       0.83289876       0.00000000
Si      -1.01344978      -0.59424292      -2.11772860       0.00000000
Si       1.21163555       2.17406342       0.54992958       0.00000000
Si      -1.82532710       1.57591090      -2.36024834       0.00000000
Si       3.32060250      -0.70550362      -0.24243129       0.00000000
Si       0.66950272      -1.40789584       3.03028799       0.00000000
Si      -2.49665429       2.67511124      -0.37333181       0.00000000
Si       3.45965394       1.68849110      -0.18175714       0.00000000
Si       2.64148868      -1.44744796      -2.47499267       0.00000000
