10
Lattice="16.2900001489832 0.0 0.0 0.0 16.2900001489832 0.0 0.0 0.0 29.48209827789657" Properties=species:S:1:pos:R:3:initial_magmoms:R:1 pbc="T T T"
H       -1.30559464      -0.64355275      -0.42374620       0.00000000
Si       0.89839351       1.04814748      -1.79374982       0.00000000
Si       1.74555497      -1.57384207      -0.18163921       0.00000000
Si      -0.08000019       1.39123117       1.92712684       0.00000000
Si       1.88004521       0.37786284       2.73363912       0.00000000
Si       0.87045616      -2.97944103       1.54966753       0.00000000
Si      -2.82380637      -0.47959389       2.01138667       0.00000000
Si      -3.52556328       0.59590450      -0.06034986       0.00000000
Si      -1.47084040      -2.50058018       2.16955813       0.00000000
Si       0.30087630      -0.20724138      -3.63809093       0.00000000
