10
Lattice="16.2900001489832 0.0 0.0 0.0 16.2900001489832 0.0 0.0 0.0 29.48209827789657" Properties=species:S:1:pos:R:3:initial_magmoms:R:1 pbc="T T T"
Si       0.61830325       2.24521977      -0.22214761       0.00000000
Si       1.96004540      -1.01336833       0.80651228       0.00000000
Si      -1.79595623      -0.19310166       1.51879977       0.00000000
Si       0.08000019      -1.39123117      -1.92712684       0.00000000
Si      -2.74380618      -1.87082507       0.08425984       0.00000000
H       -1.22559445      -2.03478392      -2.35087303       0.00000000
Si       2.69661404       1.86012742      -1.25514137       0.00000000
Si       0.80835868       2.85926644       2.13795332       0.00000000
Si       0.97839370      -0.34308369      -3.72087666       0.00000000
Si      -0.95039119      -0.55281745       3.73656114       0.00000000
