10
Lattice="16.2900001489832 0.0 0.0 0.0 16.2900001489832 0.0 0.0 0.0 29.48209827789657" Properties=species:S:1:pos:R:3:initial_magmoms:R:1 pbc="T T T"
Si       0.57324511       0.87790069       2.15186887       0.00000000
Si      -0.84887028       1.86403214      -1.25817803       0.00000000
Si       1.85012048      -0.81640594      -1.31985458       0.00000000
Si      -1.85409524      -1.81219736      -0.12865988       0.00000000
Si      -2.22523031       0.63462583      -2.75722480       0.00000000
Si       0.60258340      -2.18103554      -2.80451408       0.00000000
Si      -1.64284489       1.04187583       3.22519414       0.00000000
Si      -0.80193227      -3.45680971      -1.43678058       0.00000000
Si      -3.53652645      -0.66951901      -1.32203625       0.00000000
Si       1.27580023       3.11950245       1.92868939       0.00000000
