10
Lattice="16.2900001489832 0.0 0.0 0.0 16.2900001489832 0.0 0.0 0.0 29.48209827789657" Properties=species:S:1:pos:R:3:initial_magmoms:R:1 pbc="T T T"
Si       1.53059212      -1.25548660       1.26418058       0.00000000
Si       0.62939674       1.78812074      -1.39271663       0.00000000
Si      -1.37510407       1.30644172       1.39644022       0.00000000
Si      -0.78033988      -1.84938743      -1.28345598       0.00000000
Si       0.00601101       0.89524954      -3.52816398       0.00000000
Si       2.56429037       2.66009186      -0.21768992       0.00000000
Si       0.09379782      -2.66634722       2.57153475       0.00000000
Si       2.82932868      -2.52297893      -0.30021031       0.00000000
Si      -2.67366306       2.73155610       0.00985292       0.00000000
Si      -2.62651654      -2.78128947      -0.15099257       0.00000000
