10
Lattice="16.2900001489832 0.0 0.0 0.0 16.2900001489832 0.0 0.0 0.0 29.48209827789657" Properties=species:S:1:pos:R:3:initial_magmoms:R:1 pbc="T T T"
Si       1.40447494       1.29943702      -1.36016250       0.00000000
Si       1.45854145      -1.29782431       1.32324502       0.00000000
Si      -1.30720735       1.44448318       1.35983230       0.00000000
Si      -1.39758427      -1.39926214      -1.33618471       0.00000000
Si       0.04285899      -2.56642436       2.69195143       0.00000000
Si       0.10564065       2.56108124      -2.81978581       0.00000000
Si      -2.64173629       2.76542301      -0.09699610       0.00000000
Si      -2.69614326       0.02585223      -2.72277202       0.00000000
Si      -2.68993514      -2.74320345       0.04027255       0.00000000
Si      -0.02248020      -2.70570386      -2.73262493       0.00000000
