10
Lattice="16.2900001489832 0.0 0.0 0.0 16.2900001489832 0.0 0.0 0.0 29.48209827789657" Properties=species:S:1:pos:R:3:initial_magmoms:R:1 pbc="T T T"
Si       1.86109994      -1.11887866       0.89050678       0.00000000
Si      -1.97112260       0.08311158       1.34293906       0.00000000
Si      -0.48811356      -0.99232165      -2.13320670       0.00000000
Si       0.82525141       2.22573530      -0.43037967       0.00000000
Si      -2.98184380       1.44554203      -0.27427196       0.00000000
Si       3.36471582       0.09060498      -0.46953190       0.00000000
Si      -2.28695312       0.53621793      -2.51001740       0.00000000
H       -1.13073778      -2.45886149       2.46216796       0.00000000
Si      -0.24039153       3.47250675       1.29845057       0.00000000
Si       2.98046730       2.15806664       0.57761327       0.00000000
