10
Lattice="16.2900001489832 0.0 0.0 0.0 16.2900001489832 0.0 0.0 0.0 29.48209827789657" Properties=species:S:1:pos:R:3:initial_magmoms:R:1 pbc="T T T"
Si      -1.46780264      -0.03005505       0.41955974       0.00000000
Si       1.96029626       1.10921869      -0.73277755       0.00000000
Si       0.21961201       2.40088538      -1.70438958       0.00000000
Si      -1.67942734       1.95333392       1.70459596       0.00000000
Si       2.14272798       1.64485018       1.60571300       0.00000000
Si      -2.67409475      -0.85296070      -1.42395586       0.00000000
Si      -1.73409658      -1.80341705       1.92335313       0.00000000
Si       2.59883169      -0.91934245      -1.80793071       0.00000000
Si       0.26348098       1.38057751       3.02574775       0.00000000
Si      -0.17639138      -0.94646530       3.46046129       0.00000000
