10
Lattice="16.28999089631971 0.0 0.0 0.0 16.28999089631971 0.0 0.0 0.0 34.281931910070035" Properties=species:S:1:pos:R:3:initial_magmoms:R:1 pbc="T T T"
Si       1.27332414      -1.36518575       1.51095300       0.00000000
Si      -0.89625951      -1.88742686      -1.23581775       0.00000000
Si       1.30715847       1.45598880      -1.47222609       0.00000000
Si      -1.43943327       1.34261040       1.48616715       0.00000000
Si       2.58002649      -2.76716831       0.11891380       0.00000000
Si       2.69610903       2.70683274       0.06170066       0.00000000
Si      -2.74954023      -2.70599936       0.05065844       0.00000000
Si       2.93281902       0.08188820      -2.55375308       0.00000000
Si       2.62544301      -0.01968646       2.88478504       0.00000000
Si      -2.65795785       2.88828705       0.06654127       0.00000000
