10
Lattice="16.28999089631971 0.0 0.0 0.0 16.28999089631971 0.0 0.0 0.0 34.281931910070035" Properties=species:S:1:pos:R:3:initial_magmoms:R:1 pbc="T T T"
Si       1.35195597      -1.35778533      -1.35831947       0.00000000
Si       1.35534429       1.35790332       1.35759954       0.00000000
Si      -1.35900954      -1.35763872       1.35705103       0.00000000
Si      -1.35910728       1.35816396      -1.36174766       0.00000000
Si      -0.01120752      -2.69889216      -2.70705027       0.00000000
Si       2.71316466      -0.00044274       2.71447917       0.00000000
Si       2.71458189      -2.71348800      -0.00075420       0.00000000
Si      -0.00174303       2.71488475       2.71475342       0.00000000
Si       2.71515204       2.71449379       0.00143984       0.00000000
Si      -0.00158013      -2.71521474       2.71447917       0.00000000
