10
Lattice="16.28999089631971 0.0 0.0 0.0 16.28999089631971 0.0 0.0 0.0 34.281931910070035" Properties=species:S:1:pos:R:3:initial_magmoms:R:1 pbc="T T T"
Si      -1.35614250      -1.35691465       1.35797665       0.00000000
Si       1.35708732      -1.35698144      -1.35715388       0.00000000
Si      -1.35723393       1.35746199      -1.35759954       0.00000000
Si       1.35785295       1.35799956       1.35674250       0.00000000
Si       2.71013472       0.00130320       2.71454773       0.00000000
Si       0.00174303      -2.71488475      -2.71475342       0.00000000
Si       2.71437012       2.71551042       0.00041138       0.00000000
Si      -2.71458189      -2.71550348       0.00023997       0.00000000
Si      -2.71536381      -0.00032580      -2.71478771       0.00000000
Si       2.71689507      -0.00039096      -2.71331358       0.00000000
