10
Lattice="16.28999089631971 0.0 0.0 0.0 16.28999089631971 0.0 0.0 0.0 34.281931910070035" Properties=species:S:1:pos:R:3:initial_magmoms:R:1 pbc="T T T"
Si      -1.35534429      -1.35790332      -1.35759954       0.00000000
Si      -1.35708732       1.35698144       1.35715388       0.00000000
Si       1.35980775       1.35659047      -1.35615970       0.00000000
Si       1.35782037      -1.35834606       1.35687962       0.00000000
Si       2.71391400      -0.00093342      -2.70923403       0.00000000
Si      -0.00011403      -2.71391304       2.71420491       0.00000000
Si      -2.71322982       0.00006679       2.71513052       0.00000000
Si      -2.71432125       2.71444343      -0.00044567       0.00000000
Si       0.00076563       2.71498099       2.71389637       0.00000000
Si       2.71500543       2.71413392      -0.00003428       0.00000000
