10
Lattice="16.28999089631971 0.0 0.0 0.0 16.28999089631971 0.0 0.0 0.0 34.281931910070035" Properties=species:S:1:pos:R:3:initial_magmoms:R:1 pbc="T T T"
Si      -1.96776684      -0.76699836       0.98344633       0.00000000
Si       1.82837331      -0.44212689       1.40631420       0.00000000
Si       0.40371507       2.32811793      -0.08601342       0.00000000
Si      -0.16874811      -1.13360481      -2.09647844       0.00000000
Si       3.36634479      -1.12697478      -0.22739218       0.00000000
Si      -0.82358982       2.99757177      -1.91557258       0.00000000
Si      -3.64268835       0.28940814      -0.24611013       0.00000000
Si       0.63877977      -3.36591215      -1.73552377       0.00000000
Si       2.65264731       1.60572159       2.26967085       0.00000000
Si       2.70612738       2.73913092       0.11251336       0.00000000
