10
Lattice="16.28999089631971 0.0 0.0 0.0 16.28999089631971 0.0 0.0 0.0 34.281931910070035" Properties=species:S:1:pos:R:3:initial_magmoms:R:1 pbc="T T T"
Si       1.95807429      -1.26879456      -0.29921287       0.00000000
Si      -1.04549220      -0.69644541       2.01043074       0.00000000
Si       0.43945533       2.27842528       0.50939551       0.00000000
Si      -1.55519001      -0.39397269      -1.82578815       0.00000000
Si      -1.64283021       1.85517851      -2.41814598       0.00000000
Si      -1.23546618       3.33483178      -0.72016095       0.00000000
Si       0.97849143      -3.45092151      -0.78200559       0.00000000
Si       3.04600194      -0.32048850      -2.20957459       0.00000000
Si      -1.78465095      -2.90949078       1.71690867       0.00000000
Si       2.23847406       1.91181884      -2.57052926       0.00000000
