10
Lattice="16.28999089631971 0.0 0.0 0.0 16.28999089631971 0.0 0.0 0.0 34.281931910070035" Properties=species:S:1:pos:R:3:initial_magmoms:R:1 pbc="T T T"
Si      -1.35643572       1.35664749       1.35897082       0.00000000
Si      -1.34946360      -1.35420399      -1.36880974       0.00000000
Si       1.35762489      -1.36058967       1.35811377       0.00000000
Si       1.35918873       1.34905635      -1.39353731       0.00000000
Si       0.14608872      -2.52493371      -2.81059890       0.00000000
Si      -0.15534144       2.67990048      -2.73535002       0.00000000
Si       2.71401174       2.71336014      -0.00466235       0.00000000
Si       0.00032580       2.71251306       2.71629611       0.00000000
Si      -2.71749291       2.71147050       0.00524514       0.00000000
Si      -2.71420722      -0.00223173       2.71595329       0.00000000
