10
Lattice="16.28999089631971 0.0 0.0 0.0 16.28999089631971 0.0 0.0 0.0 34.281931910070035" Properties=species:S:1:pos:R:3:initial_magmoms:R:1 pbc="T T T"
Si       0.75960270      -1.16429584      -1.90182552       0.00000000
Si      -2.20591754      -0.69116908       0.45584710       0.00000000
Si       1.33121880      -1.12979362       1.73620941       0.00000000
Si       0.72029493       2.33591107      -0.74720941       0.00000000
Si       2.34084042       0.73993578       2.68791066       0.00000000
Si       3.01855329      -0.41815290      -2.06696168       0.00000000
Si       3.04699563       1.79788495      -1.07837305       0.00000000
Si      -2.49102512      -0.38971870       2.76929601       0.00000000
Si      -3.83332112       0.67484909      -0.73548498       0.00000000
Si       0.52615071      -3.46745749      -1.96582992       0.00000000
