10
Lattice="16.28999089631971 0.0 0.0 0.0 16.28999089631971 0.0 0.0 0.0 34.281931910070035" Properties=species:S:1:pos:R:3:initial_magmoms:R:1 pbc="T T T"
Si       1.91319534       0.20696445      -1.28252207       0.00000000
Si      -0.07035651       0.18189414       2.34896501       0.00000000
Si      -0.05328459      -2.42631405      -0.22341548       0.00000000
Si      -1.31574330       2.09316726      -0.05306846       0.00000000
Si      -3.15756075       0.93724515       0.70977351       0.00000000
Si       1.17180486       2.28973869      -2.21478545       0.00000000
Si      -3.34960519      -0.81391356      -1.30435967       0.00000000
Si       3.61936107       0.61410042       0.33651163       0.00000000
Si      -2.35706526       0.52794261       2.86981069       0.00000000
Si       0.87910614       2.23070373       2.89727053       0.00000000
