10
Lattice="16.28999089631971 0.0 0.0 0.0 16.28999089631971 0.0 0.0 0.0 34.281931910070035" Properties=species:S:1:pos:R:3:initial_magmoms:R:1 pbc="T T T"
Si       0.88337412       1.11726594      -1.88201055       0.00000000
Si       0.21400173      -2.38966155      -0.23016902       0.00000000
Si      -2.24440362       0.01138671       0.89030227       0.00000000
Si       1.64369358       1.11307941       1.51001710       0.00000000
Si      -0.46431387      -2.88253179       1.97704012       0.00000000
Si       3.18254472       0.67419423      -1.45242342       0.00000000
Si       3.52145817       0.01718595       0.77391505       0.00000000
Si      -0.16768926       3.21043320      -1.69719655       0.00000000
Si       0.94170861       0.51670251       3.61026655       0.00000000
Si      -3.75196167       0.12854439      -0.92544127       0.00000000
