10
Lattice="16.28999089631971 0.0 0.0 0.0 16.28999089631971 0.0 0.0 0.0 34.281931910070035" Properties=species:S:1:pos:R:3:initial_magmoms:R:1 pbc="T T T"
Si      -0.83891871      -1.68510276       1.36535206       0.00000000
Si      -0.10270845      -1.30577382      -1.96912446       0.00000000
Si       1.82087991       0.95193873       1.24166621       0.00000000
Si      -1.65540609       1.83168018      -0.11306534       0.00000000
Si      -2.21416938      -0.35644149       2.65212167       0.00000000
Si       0.51417756       2.35392129       2.63370541       0.00000000
Si      -2.07598131      -0.20377161      -2.92003721       0.00000000
Si      -2.55194253      -2.76035679       0.14839560       0.00000000
Si       1.94056254      -0.55920312      -3.20204054       0.00000000
Si      -3.50868681       1.01310768       1.17341085       0.00000000
