10
Lattice="16.28999089631971 0.0 0.0 0.0 16.28999089631971 0.0 0.0 0.0 34.281931910070035" Properties=species:S:1:pos:R:3:initial_magmoms:R:1 pbc="T T T"
Si      -1.37525067       1.32866127       1.28676961       0.00000000
Si       0.83891871       1.68510276      -1.36535206       0.00000000
Si       1.37393118      -1.40779809       1.26001254       0.00000000
Si      -1.71302382      -1.07525403      -1.21695647       0.00000000
Si      -0.02961522      -1.93204287      -2.74088454       0.00000000
Si       0.73621026       0.37932894      -3.33447652       0.00000000
Si       2.65979862       2.63704149      -0.12368585       0.00000000
Si      -0.01208718       2.66976810       2.63550041       0.00000000
Si       2.70790299      -0.04652424       2.63604892       0.00000000
Si      -2.72230335      -0.04456944       2.63426626       0.00000000
