10
Lattice="16.28999089631971 0.0 0.0 0.0 16.28999089631971 0.0 0.0 0.0 34.281931910070035" Properties=species:S:1:pos:R:3:initial_magmoms:R:1 pbc="T T T"
Si      -1.35666378      -1.35944937      -1.35605686       0.00000000
Si      -1.35731538       1.35702000       1.35794236       0.00000000
Si       1.35742941      -1.35757602       1.35742813       0.00000000
Si       1.35900954       1.35763872      -1.35705103       0.00000000
Si       2.71096551      -0.00014661      -2.71537050       0.00000000
Si       0.00047241      -2.71285515       2.71482199       0.00000000
Si       2.71445157      -2.71440270       0.00017141       0.00000000
Si       2.71423980       0.00162900       2.71475342       0.00000000
Si      -2.71380974      -0.00006516       2.71578188       0.00000000
Si       2.71435383       2.71554204       0.00054851       0.00000000
