10
Lattice="16.28999089631971 0.0 0.0 0.0 16.28999089631971 0.0 0.0 0.0 34.281931910070035" Properties=species:S:1:pos:R:3:initial_magmoms:R:1 pbc="T T T"
Si      -1.53372698      -1.13467832      -1.37718281       0.00000000
Si       1.37067318       1.57764252      -1.12377675       0.00000000
Si       1.34552142      -1.35160468       1.51619813       0.00000000
Si      -1.36800881       1.35484419       1.51916010       0.00000000
Si       2.76226272      -2.68553912       0.08204014       0.00000000
Si      -2.79678842      -2.67434789      -0.03815924       0.00000000
Si      -2.89698821       2.60915790       0.07334966       0.00000000
Si      -2.37036509       0.28845192      -3.15559330       0.00000000
Si       2.70888039       0.00196783       2.90605357       0.00000000
Si      -0.00816455       2.71606917       2.90361955       0.00000000
