10
Lattice="16.28999089631971 0.0 0.0 0.0 16.28999089631971 0.0 0.0 0.0 34.281931910070035" Properties=species:S:1:pos:R:3:initial_magmoms:R:1 pbc="T T T"
Si      -0.70198497      -0.59637690       2.10024945       0.00000000
Si       1.87776459      -1.09589346      -0.73610205       0.00000000
Si       0.97958286       2.18212695       0.48279272       0.00000000
Si      -1.64369358      -1.11307941      -1.51001710       0.00000000
Si       1.53885114      -0.43888518      -2.96244052       0.00000000
Si      -0.76031946       0.00418653      -3.39202765       0.00000000
Si      -0.97849143       3.45092151       0.78200559       0.00000000
Si      -0.72819558      -2.97668799       2.12640658       0.00000000
Si      -2.76314238       0.54143073       2.49891426       0.00000000
Si       3.91940658      -0.48742938       0.22053579       0.00000000
