10
Lattice="16.28999089631971 0.0 0.0 0.0 16.28999089631971 0.0 0.0 0.0 34.281931910070035" Properties=species:S:1:pos:R:3:initial_magmoms:R:1 pbc="T T T"
Si      -1.85328072      -0.81857250       1.28647619       0.00000000
Si       0.89625951       1.88742686       1.23581775       0.00000000
Si       1.65540609      -1.83168018       0.11306534       0.00000000
Si      -0.42057522      -2.03545179      -2.80697187       0.00000000
Si       2.16958365       0.52224111       2.74677075       0.00000000
Si      -0.55876329      -2.18812167       2.76518701       0.00000000
Si      -2.66890473      -2.72795598       0.13318405       0.00000000
Si       3.47628600      -0.87974145       1.35473156       0.00000000
Si       0.81648738      -3.51678294       1.47841741       0.00000000
Si       1.55269764      -3.13745400      -1.85605911       0.00000000
