10
Lattice="16.28999089631971 0.0 0.0 0.0 16.28999089631971 0.0 0.0 0.0 34.281931910070035" Properties=species:S:1:pos:R:3:initial_magmoms:R:1 pbc="T T T"
Si      -1.34578206      -1.35238681      -1.39431551       0.00000000
Si       1.36907676       1.36438524      -1.39674953       0.00000000
Si      -1.38595320       1.40603877       1.44488139       0.00000000
Si       1.36531377      -1.30326614       1.66997668       0.00000000
Si       0.39765519       2.32697763       2.64852069       0.00000000
Si       2.11007628       0.54757206       3.07731934       0.00000000
Si      -2.68475490      -2.72493323      -0.01597539       0.00000000
Si       2.72145627      -2.70263222       0.00479947       0.00000000
Si       2.73561228       2.70060507      -0.03891001       0.00000000
Si      -2.70788670       2.74180248      -0.01474124       0.00000000
