10
Lattice="16.28999089631971 0.0 0.0 0.0 16.28999089631971 0.0 0.0 0.0 34.281931910070035" Properties=species:S:1:pos:R:3:initial_magmoms:R:1 pbc="T T T"
Si       1.35417141      -1.35487177      -1.36143912       0.00000000
Si      -1.36050822       1.35759635      -1.36185051       0.00000000
Si      -1.33897284      -1.37254642       1.37834012       0.00000000
Si       1.34578206       1.35238681       1.39431551       0.00000000
Si      -2.51258589       0.21936681       2.67810602       0.00000000
Si       2.70767493      -2.71120975       0.00003428       0.00000000
Si       2.71151937       0.00091211      -2.71903867       0.00000000
Si       2.71485882       2.71677205      -0.00243402       0.00000000
Si      -0.00312768      -2.71350664      -2.71869585       0.00000000
Si      -0.00293220       2.71626706      -2.71890154       0.00000000
