10
Lattice="16.28999089631971 0.0 0.0 0.0 16.28999089631971 0.0 0.0 0.0 34.281931910070035" Properties=species:S:1:pos:R:3:initial_magmoms:R:1 pbc="T T T"
Si      -0.17943435       0.99285921      -2.09726692       0.00000000
Si       0.47377836      -1.72713096       1.66685702       0.00000000
Si      -0.63970830      -1.90462680      -1.39856648       0.00000000
Si      -2.90880756      -0.87175935      -0.33109508       0.00000000
Si      -0.44499393       3.11443623      -0.18988773       0.00000000
Si       3.47723082       0.04303818       0.27411848       0.00000000
Si      -2.52234360       0.86068215      -2.49850288       0.00000000
Si       1.85922657      -0.27227106      -3.20292841       0.00000000
Si       2.84418513      -1.81244169       1.55849178       0.00000000
Si       0.28092105      -0.42899715       3.71825469       0.00000000
