10
Lattice="16.28999089631971 0.0 0.0 0.0 16.28999089631971 0.0 0.0 0.0 34.281931910070035" Properties=species:S:1:pos:R:3:initial_magmoms:R:1 pbc="T T T"
Si      -1.68850737      -1.69592325       0.26582225       0.00000000
Si       2.42279541      -0.30184230       0.59194645       0.00000000
Si      -2.09626236       1.19471186       0.87953774       0.00000000
Si      -2.06762454       0.88921246      -1.74916799       0.00000000
Si       0.40267251       2.82706760      -0.92482419       0.00000000
Si      -1.36404315      -2.26217994       2.56497558       0.00000000
Si       2.73567744      -2.51213370      -0.16808441       0.00000000
Si       2.40453432      -0.62096244       2.90906352       0.00000000
Si       2.26147554      -1.87394037      -2.49120082       0.00000000
Si      -2.03030415      -2.77019988      -1.82736512       0.00000000
