10
Lattice="16.28999089631971 0.0 0.0 0.0 16.28999089631971 0.0 0.0 0.0 34.281931910070035" Properties=species:S:1:pos:R:3:initial_magmoms:R:1 pbc="T T T"
Si      -1.35667102       1.36003581       1.36353032       0.00000000
Si       1.35904538      -1.35770634       1.36414740       0.00000000
Si       1.36645733       1.36340784      -1.36390742       0.00000000
Si      -1.35984426      -1.36122498      -1.38445945       0.00000000
Si      -2.70984543      -2.71489954       0.00195407       0.00000000
Si      -2.71072509       2.71513575       0.00558796       0.00000000
Si       2.71704494      -2.71410133       0.00243402       0.00000000
Si       2.71592093       2.71761183       0.00490232       0.00000000
Si      -2.71261473       0.00001629       2.72112987       0.00000000
Si       0.00156058      -2.71469755       2.72109558       0.00000000
