10
Lattice="16.28999089631971 0.0 0.0 0.0 16.28999089631971 0.0 0.0 0.0 34.281931910070035" Properties=species:S:1:pos:R:3:initial_magmoms:R:1 pbc="T T T"
Si      -1.40048388       1.13039568       1.46627333       0.00000000
Si       2.22076683       0.09226656       0.71457299       0.00000000
Si      -1.05218739      -2.11137948       0.24621297       0.00000000
Si       0.21476736       0.70827291      -2.26905378       0.00000000
Si      -0.40909077      -2.83669173      -1.86932623       0.00000000
Si      -3.44212587       0.52193160       0.50963548       0.00000000
Si       2.83489983      -2.12946138       0.64062682       0.00000000
Si      -0.84939318      -1.08235647      -3.35082074       0.00000000
Si       2.49088761       0.44553150      -2.74814404       0.00000000
Si       2.27103777       1.13259483       2.74673848       0.00000000
