10
Lattice="16.28999089631971 0.0 0.0 0.0 16.28999089631971 0.0 0.0 0.0 34.281931910070035" Properties=species:S:1:pos:R:3:initial_magmoms:R:1 pbc="T T T"
Si      -1.35405407       1.35509994      -1.35794236       0.00000000
Si       1.35838473       1.35534429       1.35732529       0.00000000
Si      -1.35594371      -1.36001952       1.35759954       0.00000000
Si       1.35667102      -1.36003581      -1.36353032       0.00000000
Si      -2.71286813       2.71199178       0.00047995       0.00000000
Si       0.00065763       2.70311373      -2.72228860       0.00000000
Si       0.00143896       2.71257822       2.71530193       0.00000000
Si      -2.71391069      -0.00265527       2.71509624       0.00000000
Si       2.71615623       2.71422351       0.00034282       0.00000000
Si       2.71596075      -0.00193851       2.71537050       0.00000000
