10
Lattice="16.28999089631971 0.0 0.0 0.0 16.28999089631971 0.0 0.0 0.0 34.281931910070035" Properties=species:S:1:pos:R:3:initial_magmoms:R:1 pbc="T T T"
Si       2.25021915      -0.08050518       0.66530982       0.00000000
Si      -0.32446422       0.56625669      -2.29915333       0.00000000
Si      -0.74272626       1.52712234       1.69945916       0.00000000
Si      -0.82069020      -2.22089715       0.41388600       0.00000000
Si       0.06517629       0.22243995       3.51760244       0.00000000
Si       3.03230205      -1.61476254      -0.94628470       0.00000000
Si       1.36404315       2.26217994      -2.56497558       0.00000000
Si      -2.68653051       0.11922651      -2.60299426       0.00000000
Si      -3.06063036      -1.94896818       1.07011110       0.00000000
Si       2.33478054      -0.22643100       3.00316748       0.00000000
