10
Lattice="16.28999089631971 0.0 0.0 0.0 16.28999089631971 0.0 0.0 0.0 34.281931910070035" Properties=species:S:1:pos:R:3:initial_magmoms:R:1 pbc="T T T"
Si       0.71444682      -1.78233777      -1.44303017       0.00000000
Si      -2.04327099      -0.74657070       1.23291609       0.00000000
Si      -0.50854122       1.92723732      -1.57758682       0.00000000
Si       2.20403700       0.79698825       1.38913894       0.00000000
Si       1.18881162       1.37912769      -3.10855020       0.00000000
Si       0.62846820      -0.82591929      -3.63193274       0.00000000
Si      -1.94056254       0.55920312       3.20204054       0.00000000
Si       3.00871413      -2.28302721      -0.96808802       0.00000000
Si       1.44259353      -2.41061049       2.88438052       0.00000000
Si      -4.01654385       0.35543151       0.28200333       0.00000000
