10
Lattice="16.28999089631971 0.0 0.0 0.0 16.28999089631971 0.0 0.0 0.0 34.281931910070035" Properties=species:S:1:pos:R:3:initial_magmoms:R:1 pbc="T T T"
Si      -1.49200110      -1.03873185       1.50762906       0.00000000
Si      -1.13920857       1.81032466      -1.16503783       0.00000000
Si       1.15233831       1.54711084       1.51526365       0.00000000
Si       0.83171853      -1.75288545      -1.54693876       0.00000000
Si       0.98689707       2.80426553      -1.77151982       0.00000000
Si      -0.08847099      -2.36859858       2.89604122       0.00000000
Si       2.73080673      -2.57671962      -0.10846809       0.00000000
Si      -3.31288101      -1.99067058       0.26596284       0.00000000
Si       2.36969001      -0.70289721      -3.01262930       0.00000000
Si       1.92241548       3.39432191       0.34111265       0.00000000
