10
Lattice="16.28999089631971 0.0 0.0 0.0 16.28999089631971 0.0 0.0 0.0 34.281931910070035" Properties=species:S:1:pos:R:3:initial_magmoms:R:1 pbc="T T T"
Si      -1.35000117      -1.35367456       1.38641352       0.00000000
Si       1.35984426       1.36122498       1.38445945       0.00000000
Si      -1.52897940       1.25431371      -1.44581043       0.00000000
Si       1.36800881      -1.35484419      -1.51916010       0.00000000
Si       2.73868199       0.22279833      -2.64293685       0.00000000
Si      -0.16571817      -2.48952251      -2.89634290       0.00000000
Si       2.71353023      -2.70644886      -0.00296196       0.00000000
Si      -2.71259451      -2.71438214       0.01563600       0.00000000
Si      -2.71692765       2.72023452       0.01429557       0.00000000
Si       2.72630159       2.72463282       0.02055203       0.00000000
