10
Lattice="16.28999089631971 0.0 0.0 0.0 16.28999089631971 0.0 0.0 0.0 34.281931910070035" Properties=species:S:1:pos:R:3:initial_magmoms:R:1 pbc="T T T"
Si      -2.02334832      -1.06432833       0.62094898       0.00000000
Si      -0.36737208       1.71745796       1.60610941       0.00000000
Si       1.62740358      -1.36601817       1.19133208       0.00000000
Si      -0.15112233       0.61327289      -2.55479384       0.00000000
Si       0.10927332       3.23303069      -0.12920867       0.00000000
Si       0.77115231      -3.44877612       0.44741374       0.00000000
Si      -1.71046629      -3.27461973      -0.13908188       0.00000000
Si       0.90202617       1.18635509       3.51701964       0.00000000
Si      -2.04160941      -1.38344847       2.93806605       0.00000000
Si       1.34229600      -1.06456779       3.50478099       0.00000000
