10
Lattice="16.28999089631971 0.0 0.0 0.0 16.28999089631971 0.0 0.0 0.0 34.281931910070035" Properties=species:S:1:pos:R:3:initial_magmoms:R:1 pbc="T T T"
Si      -0.24249294       2.30073444      -0.32588423       0.00000000
Si      -2.14708716      -0.92794356       0.26434812       0.00000000
Si       0.85691916      -0.35038161      -2.21485401       0.00000000
Si       1.60761123      -0.57050838       1.72853025       0.00000000
Si       2.01898164       2.72406267      -0.84964388       0.00000000
Si       1.29718899      -2.60130449      -2.22709267       0.00000000
Si       2.82936190       0.88985754      -2.14975259       0.00000000
Si      -3.10361967      -1.01232576      -1.86627513       0.00000000
Si       3.65356097       0.26406090       1.01327163       0.00000000
Si       1.98793127      -2.88104030       1.49140200       0.00000000
