10
Lattice="16.28999089631971 0.0 0.0 0.0 16.28999089631971 0.0 0.0 0.0 34.281931910070035" Properties=species:S:1:pos:R:3:initial_magmoms:R:1 pbc="T T T"
Si       1.53372698       1.13467832       1.37718281       0.00000000
Si      -1.26306144      -1.53966957       1.33902357       0.00000000
Si      -0.83663811       1.42313024      -1.77841049       0.00000000
Si       0.50646654       0.12642017      -3.24835199       0.00000000
Si      -0.51960213      -2.02498125      -2.84423635       0.00000000
Si       0.16571817       2.48952251       2.89634290       0.00000000
Si      -2.54687634      -0.22485963       2.91197890       0.00000000
Si       2.79014210       0.50490366      -2.75205219       0.00000000
Si       2.90440016       2.71232084       0.25340605       0.00000000
Si      -2.44162665      -3.15001752      -0.08861884       0.00000000
