10
Lattice="16.28999089631971 0.0 0.0 0.0 16.28999089631971 0.0 0.0 0.0 34.281931910070035" Properties=species:S:1:pos:R:3:initial_magmoms:R:1 pbc="T T T"
Si       1.35405407      -1.35509994       1.35794236       0.00000000
Si       1.35471170       1.34801379      -1.36434623       0.00000000
Si      -1.35881406       1.35689184       1.35842231       0.00000000
Si      -1.36604682      -1.35612621      -1.37575184       0.00000000
Si       2.70915310       2.71394658       0.00455950       0.00000000
Si       2.71072509      -2.71513575      -0.00558796       0.00000000
Si      -2.71243161      -2.71362078      -0.00095989       0.00000000
Si       2.71243880       0.00024435       2.71526765       0.00000000
Si      -2.71676475       2.71308321      -0.00500516       0.00000000
Si      -0.00177561       2.71459818       2.71605614       0.00000000
