10
Lattice="16.28999089631971 0.0 0.0 0.0 16.28999089631971 0.0 0.0 0.0 34.281931910070035" Properties=species:S:1:pos:R:3:initial_magmoms:R:1 pbc="T T T"
Si      -1.00289385       0.20707848      -2.08180576       0.00000000
Si       0.00180819      -2.00099844       1.25667348       0.00000000
Si       2.25857496       0.51017022      -0.57528542       0.00000000
Si      -1.03671189       1.99241361       0.95228404       0.00000000
Si      -0.08247627       3.38255334      -0.63154210       0.00000000
Si      -0.18554310      -1.03314438       3.47190459       0.00000000
Si       1.90532273      -3.09220038       0.38999148       0.00000000
Si       2.20819162       2.86329330      -0.82204690       0.00000000
Si      -1.06245009       2.51087544      -2.57659716       0.00000000
Si       3.48440561       0.17917371       1.40014345       0.00000000
