10
Lattice="16.28999089631971 0.0 0.0 0.0 16.28999089631971 0.0 0.0 0.0 34.281931910070035" Properties=species:S:1:pos:R:3:initial_magmoms:R:1 pbc="T T T"
Si      -0.59508999       1.90752642      -1.25694774       0.00000000
Si      -0.36328329      -2.42297460      -0.55481910       0.00000000
Si       2.52096125      -0.01216863      -0.68186801       0.00000000
Si      -0.66876966       0.42344226       2.71859300       0.00000000
Si      -1.21445208       0.60258339      -3.07443965       0.00000000
Si       1.05601554      -1.56126618       2.83220339       0.00000000
Si       1.03953006      -3.33412317       1.10041635       0.00000000
Si      -1.85113044       2.97973422       1.24882291       0.00000000
Si       1.21585302       3.44971701      -0.88361729       0.00000000
Si      -2.63601522      -2.70881523       0.10332580       0.00000000
