10
Lattice="16.28999089631971 0.0 0.0 0.0 16.28999089631971 0.0 0.0 0.0 34.281931910070035" Properties=species:S:1:pos:R:3:initial_magmoms:R:1 pbc="T T T"
Si       1.25584497       1.16877492      -1.56987339       0.00000000
Si      -2.26401678       0.16444755      -0.56489799       0.00000000
Si       0.97997382       0.87167790       1.94505506       0.00000000
Si       0.05955624      -2.30379696       0.49479140       0.00000000
Si      -2.90711340       0.88975980       1.55064121       0.00000000
Si       0.02573820      -0.51846183       3.52888120       0.00000000
Si       3.30281283       1.34998488      -0.38104389       0.00000000
Si      -2.72310156      -1.97783406      -1.40648561       0.00000000
Si       0.81371808      -3.30828723      -1.45208060       0.00000000
Si       0.36584082       3.09340584       2.01900123       0.00000000
