10
Lattice="16.28999089631971 0.0 0.0 0.0 16.28999089631971 0.0 0.0 0.0 34.281931910070035" Properties=species:S:1:pos:R:3:initial_magmoms:R:1 pbc="T T T"
Si       1.31422833       1.32629922      -1.40288600       0.00000000
Si      -2.27612025       0.26274141       0.47909027       0.00000000
Si       0.87837309       0.98922654       1.94690628       0.00000000
Si       0.61988337      -2.27789586      -0.12615758       0.00000000
Si       3.08355758       0.18775854       1.55842321       0.00000000
Si      -0.27012078      -0.35326494       3.46271703       0.00000000
Si       0.03088584       3.36217455      -1.01704264       0.00000000
Si       2.66685123      -2.09668590       1.06267192       0.00000000
Si      -3.34028079      -1.52788797      -0.60267670       0.00000000
Si      -2.49088761      -0.44553150       2.74814404       0.00000000
