10
Lattice="16.28999089631971 0.0 0.0 0.0 16.28999089631971 0.0 0.0 0.0 34.281931910070035" Properties=species:S:1:pos:R:3:initial_magmoms:R:1 pbc="T T T"
Si      -1.46721424      -0.75026853       1.65787515       0.00000000
Si      -1.12143129       2.02779549      -0.37490742       0.00000000
Si       2.23785504       0.28672029       0.94313076       0.00000000
Si       0.21193290      -1.51580079      -1.93597034       0.00000000
Si      -0.10785609      -2.28877758       2.72904900       0.00000000
Si       3.13680240      -1.71176949       0.05176575       0.00000000
Si       0.01039302       3.01964472      -2.33343528       0.00000000
Si      -2.27759449       1.08393660       2.95798387       0.00000000
Si      -1.87884462       2.99895642       1.66027489       0.00000000
Si       1.83247839      -3.11177607       1.49914972       0.00000000
