10
Lattice="16.28999089631971 0.0 0.0 0.0 16.28999089631971 0.0 0.0 0.0 34.281931910070035" Properties=species:S:1:pos:R:3:initial_magmoms:R:1 pbc="T T T"
Si       1.35886686       1.34840475       1.40060968       0.00000000
Si      -1.35379674      -1.36761066       1.39707864       0.00000000
Si       1.44747306      -1.42397406      -1.38310874       0.00000000
Si      -1.43158149       1.38922749      -1.54500869       0.00000000
Si      -2.71539639       2.70403742       0.02794665       0.00000000
Si       2.71072835       2.71197070       0.00934869       0.00000000
Si       2.70919709      -2.72663649       0.07074766       0.00000000
Si      -2.72002275      -2.72719035       0.03664398       0.00000000
Si       0.00116267       2.70747547       2.76078037       0.00000000
Si      -2.71568961      -0.00941562       2.76043755       0.00000000
