10
Lattice="16.28999089631971 0.0 0.0 0.0 16.28999089631971 0.0 0.0 0.0 34.281931910070035" Properties=species:S:1:pos:R:3:initial_magmoms:R:1 pbc="T T T"
Si       0.09772371       2.23528841      -0.77576627       0.00000000
Si      -1.27570248      -1.62460170      -1.17484246       0.00000000
Si       2.13469047      -0.72720189       0.76318479       0.00000000
Si      -1.61712459       0.40398534       1.73374111       0.00000000
Si       1.85544729      -0.70889193      -2.37467647       0.00000000
Si       2.01932469       0.25073568       3.00803551       0.00000000
Si      -0.85880880       2.15090621      -2.90638953       0.00000000
Si      -3.54530673      -1.17573075      -0.66040751       0.00000000
Si      -1.35045729       3.54021515       0.55927575       0.00000000
Si       0.15809445       0.24304680      -3.83392200       0.00000000
