10
Lattice="16.28999089631971 0.0 0.0 0.0 16.28999089631971 0.0 0.0 0.0 34.281931910070035" Properties=species:S:1:pos:R:3:initial_magmoms:R:1 pbc="T T T"
Si      -1.14849387      -1.34249148       1.51581075       0.00000000
Si      -0.87837309      -0.98922654      -1.94690628       0.00000000
Si       2.20518449      -0.80146800      -0.38848307       0.00000000
Si      -0.56824407       2.35463805       0.17391234       0.00000000
Si       0.43585524       0.33707268      -3.34979228       0.00000000
Si      -3.15449334      -0.72648513      -1.46781602       0.00000000
Si       1.78847814      -3.08591244      -0.88423436       0.00000000
Si       1.52980760       3.36403161      -0.13798485       0.00000000
Si      -1.09822293      -0.30216321       3.54797624       0.00000000
Si      -3.36926070      -1.43475804       0.80123776       0.00000000
