10
Lattice="16.28999089631971 0.0 0.0 0.0 16.28999089631971 0.0 0.0 0.0 34.281931910070035" Properties=species:S:1:pos:R:3:initial_magmoms:R:1 pbc="T T T"
Si      -1.34109054      -1.53054324       1.17761930       0.00000000
Si       2.12333587       0.69818518       0.80343181       0.00000000
Si      -1.09550250       2.01970655       0.78951333       0.00000000
Si       0.11536578      -0.97793757      -2.24485072       0.00000000
Si       2.21341745       0.03145599      -2.55674791       0.00000000
Si      -1.03570191       1.35036022       3.17982237       0.00000000
Si       2.13704798       2.91844214       0.04463510       0.00000000
Si      -2.01932469      -0.25073568      -3.00803551       0.00000000
Si       3.54427787      -0.56417157      -0.61964627       0.00000000
Si      -0.97259445      -0.96404220       3.40412918       0.00000000
