10
Lattice="16.28999089631971 0.0 0.0 0.0 16.28999089631971 0.0 0.0 0.0 34.281931910070035" Properties=species:S:1:pos:R:3:initial_magmoms:R:1 pbc="T T T"
Si       0.98456760      -0.38089278       2.06079092       0.00000000
Si      -2.22497454      -0.58811787       0.43397522       0.00000000
Si       0.19029978       2.27996469      -0.58433586       0.00000000
Si       1.46421036      -1.49521023      -1.21241548       0.00000000
Si       3.15859842       0.25697475       1.36301609       0.00000000
Si      -1.85194494      -2.91087639       0.30754338       0.00000000
Si      -1.81871334       2.97610155      -1.56332553       0.00000000
Si      -3.48652426      -0.45087462      -1.55537212       0.00000000
Si       3.70952622      -0.83735487      -0.68310216       0.00000000
Si       1.72382409       2.58292611      -2.33089842       0.00000000
