10
Lattice="16.28999089631971 0.0 0.0 0.0 16.28999089631971 0.0 0.0 0.0 34.281931910070035" Properties=species:S:1:pos:R:3:initial_magmoms:R:1 pbc="T T T"
Si      -1.35748480      -1.35699121       1.35694819       0.00000000
Si       1.35812988       1.35778779       1.35718816       0.00000000
Si       1.35799956      -1.35639499      -1.36171338       0.00000000
Si      -1.35904538       1.35770634      -1.36414740       0.00000000
Si       2.71450044       2.71472850      -0.00113130       0.00000000
Si      -2.71492509      -2.71446274      -0.00013713       0.00000000
Si      -2.71498433       0.00058644       2.71499340       0.00000000
Si       2.71536381       0.00032580       2.71478771       0.00000000
Si       0.00078192      -2.71517768       2.71502768       0.00000000
Si       0.00024435       2.71580364       2.71475342       0.00000000
