10
Lattice="16.28999089631971 0.0 0.0 0.0 16.28999089631971 0.0 0.0 0.0 34.281931910070035" Properties=species:S:1:pos:R:3:initial_magmoms:R:1 pbc="T T T"
Si       1.35936665      -1.35311256      -1.36085633       0.00000000
Si      -1.35654843       1.36094805      -1.35958790       0.00000000
Si      -1.36001820      -1.35405738       1.37042099       0.00000000
Si       1.38110077       1.35545832       1.35650252       0.00000000
Si      -2.50429296       0.17247852       2.82455851       0.00000000
Si      -2.71399413      -2.71134018       0.00047995       0.00000000
Si       2.71408540      -2.71221984      -0.00164553       0.00000000
Si       2.71340122       2.71518462      -0.00311966       0.00000000
Si       0.00047586      -2.71213839      -2.71780452       0.00000000
Si      -2.71461315       0.00298107      -2.71753026       0.00000000
