10
Lattice="16.28999089631971 0.0 0.0 0.0 16.28999089631971 0.0 0.0 0.0 34.281931910070035" Properties=species:S:1:pos:R:3:initial_magmoms:R:1 pbc="T T T"
Si       0.42968785      -0.40200462       2.33624640       0.00000000
Si       1.79258092       0.96295077      -1.32376326       0.00000000
Si      -0.90629448      -1.78075764      -1.39253285       0.00000000
Si      -1.61504991       1.86815349      -0.01114163       0.00000000
Si      -1.74618441      -1.18527669       2.74564146       0.00000000
Si       0.43995055       2.25360747      -2.79727008       0.00000000
Si      -2.30116842      -0.45590823      -2.78335161       0.00000000
Si       1.59130168      -2.47723659       2.46459803       0.00000000
Si      -3.44544318       1.07062767      -1.32921409       0.00000000
Si      -0.77633579       3.61027125       1.32818563       0.00000000
