10
Lattice="16.28999089631971 0.0 0.0 0.0 16.28999089631971 0.0 0.0 0.0 34.281931910070035" Properties=species:S:1:pos:R:3:initial_magmoms:R:1 pbc="T T T"
Si       1.35748480       1.35699121      -1.35694819       0.00000000
Si      -1.35744029      -1.35747153      -1.35708532       0.00000000
Si      -1.35749953       1.35757765       1.35804521       0.00000000
Si       1.35826672      -1.35818647       1.35807949       0.00000000
Si      -2.71417531       2.71471384       0.00003428       0.00000000
Si      -2.71487578       0.00009611       2.71461630       0.00000000
Si      -2.71459885      -2.71532050       0.00020569       0.00000000
Si       0.00201019       2.71604962       2.71427348       0.00000000
Si       2.71561468       2.71477900       0.00023997       0.00000000
Si      -2.71140601      -0.00020200      -2.71914151       0.00000000
