10
Lattice="16.28999089631971 0.0 0.0 0.0 16.28999089631971 0.0 0.0 0.0 34.281931910070035" Properties=species:S:1:pos:R:3:initial_magmoms:R:1 pbc="T T T"
Si       1.50755805      -0.11715768       1.81574354       0.00000000
Si       0.52835149       0.75142512      -2.18770271       0.00000000
Si      -0.41670634      -2.28444444      -0.49575129       0.00000000
Si      -2.20518449       0.80146800       0.38848307       0.00000000
Si      -3.08355758      -0.18775854      -1.55842321       0.00000000
Si      -1.76932925       1.13854068      -2.96130922       0.00000000
Si      -0.44887747      -3.28201146       1.63984285       0.00000000
Si       0.82883520       1.49152869       3.33793073       0.00000000
Si       1.47458709      -1.16659206      -3.33614807       0.00000000
Si       3.75196167      -0.12854439       0.92544127       0.00000000
