10
Lattice="16.28999089631971 0.0 0.0 0.0 16.28999089631971 0.0 0.0 0.0 34.281931910070035" Properties=species:S:1:pos:R:3:initial_magmoms:R:1 pbc="T T T"
Si       2.06637021      -0.97433748      -0.36674831       0.00000000
Si      -1.46956651      -0.70159401      -1.71084077       0.00000000
Si       0.24781977       2.39018283       0.05443974       0.00000000
Si      -0.92421315      -1.61512092       2.09133614       0.00000000
Si       2.01297159       0.91093680       2.52002444       0.00000000
Si       2.48634270      -0.20308743      -2.55647366       0.00000000
Si      -2.74545958       0.16042392       2.33778056       0.00000000
Si      -0.62608986      -3.53263311       0.45447583       0.00000000
Si       0.24060330       2.77501779       2.39174755       0.00000000
Si       1.70712684      -3.35238426       0.00699352       0.00000000
