10
Lattice="16.28999089631971 0.0 0.0 0.0 16.28999089631971 0.0 0.0 0.0 34.281931910070035" Properties=species:S:1:pos:R:3:initial_magmoms:R:1 pbc="T T T"
Si      -1.97502633       1.18490202       0.19749832       0.00000000
Si       1.46956651       0.70159401       1.71084077       0.00000000
Si      -0.66991810      -2.27698362       0.39924760       0.00000000
Si       0.42050680       0.33989085      -2.37306522       0.00000000
Si       2.57609734      -0.52041663      -2.50501645       0.00000000
Si       0.84347665      -2.83103910       2.16531659       0.00000000
Si       3.53593672      -0.27274347       1.34409246       0.00000000
Si       0.11578606      -3.47547150      -1.54546464       0.00000000
Si      -3.78596934      -0.35728857      -0.17583213       0.00000000
Si      -1.80595242       3.33308061      -0.79270155       0.00000000
