10
Lattice="16.28999089631971 0.0 0.0 0.0 16.28999089631971 0.0 0.0 0.0 34.281931910070035" Properties=species:S:1:pos:R:3:initial_magmoms:R:1 pbc="T T T"
Si      -1.36573731      -1.36189287      -1.33065050       0.00000000
Si       1.34705268       1.37323071      -1.34749665       0.00000000
Si       1.35645201      -1.35547461       1.35924508       0.00000000
Si      -1.35741312       1.35503478       1.36054779       0.00000000
Si       2.72230335       0.04456944      -2.63426626       0.00000000
Si      -2.62746134      -0.05923044      -2.78450691       0.00000000
Si       2.71021617       2.71433754       0.00123415       0.00000000
Si       2.71204065      -2.71463076      -0.00438809       0.00000000
Si      -2.71606754       2.71314837      -0.00078848       0.00000000
Si       2.71370223       0.00008145       2.71677606       0.00000000
