10
Lattice="16.28999089631971 0.0 0.0 0.0 16.28999089631971 0.0 0.0 0.0 34.281931910070035" Properties=species:S:1:pos:R:3:initial_magmoms:R:1 pbc="T T T"
Si      -1.35770419       1.35907072       1.36017069       0.00000000
Si       1.35865442      -1.35811359       1.36133628       0.00000000
Si       1.35186149       1.36356595      -1.39126099       0.00000000
Si      -1.35886686      -1.34840475      -1.40060968       0.00000000
Si      -2.71166991       2.71634025      -0.00188551       0.00000000
Si      -2.71266360      -2.71601541      -0.00353104       0.00000000
Si       2.71606754      -2.71314837       0.00078848       0.00000000
Si      -0.00010263      -2.71417464       2.71770167       0.00000000
Si      -2.71486275       0.00122175       2.71746170       0.00000000
Si       2.71522046       2.71713846      -0.00140556       0.00000000
