10
Lattice="16.28999089631971 0.0 0.0 0.0 16.28999089631971 0.0 0.0 0.0 34.281931910070035" Properties=species:S:1:pos:R:3:initial_magmoms:R:1 pbc="T T T"
Si      -1.35641411       1.35629304      -1.36377030       0.00000000
Si       1.36023403      -1.35907470      -1.36246758       0.00000000
Si       1.34287540       1.37338939       1.37192940       0.00000000
Si      -1.35817343      -1.35317772       1.39740089       0.00000000
Si       0.14449113      -2.66416434       2.72976892       0.00000000
Si      -2.71055294       2.71383974      -0.00414812       0.00000000
Si       2.71312830       2.71400264      -0.00137128       0.00000000
Si      -2.71773683      -2.71414206      -0.00167982       0.00000000
Si       2.71459440      -2.71915938      -0.00596506       0.00000000
Si       0.00096214       2.71377458      -2.72034138       0.00000000
