10
Lattice="16.28999089631971 0.0 0.0 0.0 16.28999089631971 0.0 0.0 0.0 34.281931910070035" Properties=species:S:1:pos:R:3:initial_magmoms:R:1 pbc="T T T"
Si      -1.23780282       1.41472134       1.37611180       0.00000000
Si       1.33230046       1.35972630      -1.35962218       0.00000000
Si      -1.38110077      -1.35545832      -1.35650252       0.00000000
Si       1.35263038      -1.29065670       1.47350682       0.00000000
Si      -2.05500046      -0.38545398       2.78612845       0.00000000
Si      -0.43995055      -2.25360747       2.79727008       0.00000000
Si       2.59304872       0.37025541       2.74769838       0.00000000
Si       2.69254804      -2.70099603       0.02183760       0.00000000
Si       2.69222224       0.00702099      -2.71708460       0.00000000
Si       2.69911291       2.72389977      -0.01350709       0.00000000
