10
Lattice="16.28999089631971 0.0 0.0 0.0 16.28999089631971 0.0 0.0 0.0 34.281931910070035" Properties=species:S:1:pos:R:3:initial_magmoms:R:1 pbc="T T T"
Si      -1.84181745      -1.15592211       0.76284198       0.00000000
Si      -0.86485239       0.96886404      -1.94409516       0.00000000
Si       1.34115570       1.52197470       1.20336505       0.00000000
Si       1.31574330      -2.09316726       0.05306846       0.00000000
Si       2.48754816       0.19657143      -2.16171699       0.00000000
Si       1.24538679      -1.91127312       2.40203347       0.00000000
Si       2.56894929       2.20573116      -0.72276637       0.00000000
Si      -1.04132196      -1.56522465       2.92287915       0.00000000
Si       2.19484944       0.13753647       2.95033899       0.00000000
Si       0.56944953       0.11878668      -3.63710932       0.00000000
