10
Lattice="16.28999089631971 0.0 0.0 0.0 16.28999089631971 0.0 0.0 0.0 34.383488856416385" Properties=species:S:1:pos:R:3:initial_magmoms:R:1 pbc="T T T"
Si      -1.03444499      -1.80195093       1.08658762       0.00000000
Si       1.14950385      -1.55262433      -1.34731776       0.00000000
Si      -1.59177476       1.17358047      -1.32211465       0.00000000
Si       1.32015300       1.36603053       1.63063787       0.00000000
Si       2.58907721       2.56394826       0.08544302       0.00000000
Si       2.48866565      -0.21056454      -2.71083016       0.00000000
Si      -0.23284667       2.50805727      -2.70739181       0.00000000
Si       2.45618339      -2.89438146       0.13708705       0.00000000
Si      -2.78268779      -2.75309308      -0.11415325       0.00000000
Si      -2.88783974       2.66271453       0.23597402       0.00000000
