10
Lattice="16.28999089631971 0.0 0.0 0.0 16.28999089631971 0.0 0.0 0.0 34.383488856416385" Properties=species:S:1:pos:R:3:initial_magmoms:R:1 pbc="T T T"
Si       1.35607734      -1.35659862       1.35938638       0.00000000
Si       1.35516510       1.34685720      -1.37437758       0.00000000
Si      -1.36023129       1.35755973       1.35907692       0.00000000
Si      -1.36264221      -1.35850455      -1.37209796       0.00000000
Si       2.71324611      -2.71266781      -0.00364465       0.00000000
Si       2.71862181       2.70998811      -0.00309452       0.00000000
Si      -2.71733490      -2.71262546      -0.00202863       0.00000000
Si       2.71349046       0.00050499       2.71653782       0.00000000
Si      -0.00128691       2.71454931       2.71660659       0.00000000
Si      -0.00164529      -2.71477411       2.71681289       0.00000000
