10
Lattice="16.28999089631971 0.0 0.0 0.0 16.28999089631971 0.0 0.0 0.0 34.383488856416385" Properties=species:S:1:pos:R:3:initial_magmoms:R:1 pbc="T T T"
Si      -1.35609363      -1.35353447       1.35794227       0.00000000
Si       1.35749457      -1.35755647      -1.35735775       0.00000000
Si      -1.35759231       1.35749457      -1.35773597       0.00000000
Si       1.35956340       1.35930276       1.35656693       0.00000000
Si       2.71073745      -0.00096111       2.71450920       0.00000000
Si      -2.71301805      -0.00228060       2.71323701       0.00000000
Si       2.71450044      -2.71485866       0.00020630       0.00000000
Si      -2.71453302      -2.71489593      -0.00013753       0.00000000
Si       2.71450044       2.71529865       0.00013753       0.00000000
Si       0.00184077      -2.71565373      -2.71416536       0.00000000
