10
Lattice="16.28999089631971 0.0 0.0 0.0 16.28999089631971 0.0 0.0 0.0 34.383488856416385" Properties=species:S:1:pos:R:3:initial_magmoms:R:1 pbc="T T T"
Si      -0.36551502      -0.22836951       2.29427396       0.00000000
Si       0.81945216      -2.22303833      -0.49660101       0.00000000
Si      -2.12320602       0.59807106      -1.07410641       0.00000000
Si       1.77409503       1.61331273      -0.64352174       0.00000000
Si      -1.11259071       1.39646025      -2.96805318       0.00000000
Si      -1.61067375       1.70070858       2.63821219       0.00000000
Si       1.89649809       0.24060330       3.01350818       0.00000000
Si       3.07923354      -1.68497081      -0.79810999       0.00000000
Si       0.45932913       3.00094380      -2.05455214       0.00000000
Si      -1.83392820      -2.06198918       2.68514568       0.00000000
