10
Lattice="16.28999089631971 0.0 0.0 0.0 16.28999089631971 0.0 0.0 0.0 34.383488856416385" Properties=species:S:1:pos:R:3:initial_magmoms:R:1 pbc="T T T"
Si       0.77035410      -0.22708260       2.27873261       0.00000000
Si      -2.26201311      -0.46897281      -0.71923422       0.00000000
Si      -0.21765069       2.54295045      -0.18690875       0.00000000
Si       1.48413303      -1.47653374      -1.47852523       0.00000000
Si      -1.89649809      -0.24060330      -3.01350818       0.00000000
Si       1.10786661       2.69101026      -2.08972647       0.00000000
Si       1.94333184       1.79243757       2.74222230       0.00000000
Si      -3.50717184       1.46010528      -0.37529599       0.00000000
Si      -1.06342749       0.25521543       3.69141343       0.00000000
Si       3.15367884       1.72180413      -1.42007327       0.00000000
