10
Lattice="16.28999089631971 0.0 0.0 0.0 16.28999089631971 0.0 0.0 0.0 34.383488856416385" Properties=species:S:1:pos:R:3:initial_magmoms:R:1 pbc="T T T"
Si       0.61450767      -1.08223592       1.97584829       0.00000000
Si       1.83378159      -0.48229803      -1.41268081       0.00000000
Si      -2.06580006      -1.03721525      -0.66466759       0.00000000
Si      -0.00358380       2.33162028       0.76121649       0.00000000
Si       3.00675933       1.53722214      -0.94919112       0.00000000
Si      -0.58052673       0.26692794       3.51963342       0.00000000
Si      -2.66677074       0.86086134       2.43510881       0.00000000
Si      -3.15043713       0.64764153      -1.89243390       0.00000000
Si      -3.40805859      -1.02413601       1.25740489       0.00000000
Si      -2.24665164       2.86845723       1.09710898       0.00000000
