10
Lattice="16.28999089631971 0.0 0.0 0.0 16.28999089631971 0.0 0.0 0.0 34.383488856416385" Properties=species:S:1:pos:R:3:initial_magmoms:R:1 pbc="T T T"
Si       0.99614979       2.04910281      -0.45981065       0.00000000
Si       1.19503440      -1.34916386      -1.54378513       0.00000000
Si       0.04481379      -0.67934187       2.29403328       0.00000000
Si      -2.08624401       0.59393340      -1.08452461       0.00000000
Si       0.57694293       2.06469234      -2.75841694       0.00000000
Si       0.58052673      -0.26692794      -3.51963342       0.00000000
Si       2.46816306      -0.62222913       2.51917649       0.00000000
Si       0.28435824      -3.43721348      -1.29708346       0.00000000
Si      -0.41614434      -2.94387083       2.26628578       0.00000000
Si      -3.63749836       0.68437548       0.69623165       0.00000000
