10
Lattice="16.28999089631971 0.0 0.0 0.0 16.28999089631971 0.0 0.0 0.0 34.383488856416385" Properties=species:S:1:pos:R:3:initial_magmoms:R:1 pbc="T T T"
Si      -1.28392893       1.49797953       1.21191551       0.00000000
Si      -1.37440359      -1.33532388      -1.35825172       0.00000000
Si       1.33859817       1.38010509      -1.35780473       0.00000000
Si       1.40395365      -1.37676564       1.44290392       0.00000000
Si      -2.67452478       0.31428297       2.63288275       0.00000000
Si       2.59660971       0.13048290       2.77344253       0.00000000
Si       2.69215056      -2.69185734      -0.00501999       0.00000000
Si      -0.01529631      -2.69003286      -2.71863522       0.00000000
Si       2.69821044       0.02498886      -2.71777563       0.00000000
Si      -2.72551248      -2.70225036       0.02554695       0.00000000
