10
Lattice="16.28999089631971 0.0 0.0 0.0 16.28999089631971 0.0 0.0 0.0 34.383488856416385" Properties=species:S:1:pos:R:3:initial_magmoms:R:1 pbc="T T T"
Si       0.39605877       2.17660464       0.77404153       0.00000000
Si      -2.29843755      -0.21763440      -0.43017207       0.00000000
Si       1.41889158      -1.71613521       0.79027055       0.00000000
Si       2.03071140      -0.60634638      -1.33332368       0.00000000
Si      -2.85563700       1.46948832       1.17402488       0.00000000
Si       3.32902440       1.21622769      -0.46854406       0.00000000
Si      -1.60607997       3.23363016       0.14427320       0.00000000
Si      -2.91874446      -2.49209307      -0.21163049       0.00000000
Si       2.14788537       3.19300290      -0.34607001       0.00000000
Si      -2.76905565       0.60527124      -2.66403421       0.00000000
