10
Lattice="16.28999089631971 0.0 0.0 0.0 16.28999089631971 0.0 0.0 0.0 34.383488856416385" Properties=species:S:1:pos:R:3:initial_magmoms:R:1 pbc="T T T"
Si      -1.49123547       1.84634118      -0.04163843       0.00000000
Si       2.19954096       0.78162678       0.52912781       0.00000000
Si      -0.09617616      -0.40180914      -2.37844479       0.00000000
Si       1.98874836      -2.81186577      -0.66267335       0.00000000
Si      -3.42548726       0.62107254       0.55295558       0.00000000
Si      -2.89717650      -1.39742136       1.75043001       0.00000000
Si       3.41770716      -1.25768574       0.44674492       0.00000000
Si       1.58232915      -2.02916385      -2.82446765       0.00000000
Si       2.21864913       1.39466835       2.83694887       0.00000000
Si       0.00965997       1.10069901       3.71933284       0.00000000
