10
Lattice="16.28999089631971 0.0 0.0 0.0 16.28999089631971 0.0 0.0 0.0 34.383488856416385" Properties=species:S:1:pos:R:3:initial_magmoms:R:1 pbc="T T T"
Si       1.35764118       1.35506736      -1.35512282       0.00000000
Si       1.35115776      -1.35718506       1.36165569       0.00000000
Si      -1.35602847       1.35278676       1.36162130       0.00000000
Si      -1.35681039      -1.35985662      -1.35450392       0.00000000
Si      -0.02135619      -2.69500131       2.70921413       0.00000000
Si      -2.67787889      -0.00653229       2.72644027       0.00000000
Si       0.00039096       2.71293660      -2.71234303       0.00000000
Si      -2.71215142       2.71393029       0.00175356       0.00000000
Si      -2.71505267      -0.00263898      -2.71210235       0.00000000
Si       2.71482624      -0.00206883      -2.71254934       0.00000000
