10
Lattice="16.28999089631971 0.0 0.0 0.0 16.28999089631971 0.0 0.0 0.0 34.383488856416385" Properties=species:S:1:pos:R:3:initial_magmoms:R:1 pbc="T T T"
Si      -1.35665053       1.35777150      -1.35708268       0.00000000
Si      -1.35767680      -1.35673871       1.35725460       0.00000000
Si       1.35743518      -1.35794906      -1.35780473       0.00000000
Si       1.35846960       1.35731538       1.35756405       0.00000000
Si       0.00034360       2.71599912      -2.71107084       0.00000000
Si       2.71297332      -0.00096111      -2.71495618       0.00000000
Si       2.71470006       2.71498914      -0.00027507       0.00000000
Si      -2.71412881       0.00105885      -2.71591892       0.00000000
Si       2.71699695      -0.00262269       2.71316824       0.00000000
Si      -2.71522024       2.71534752       0.00017192       0.00000000
