10
Lattice="16.28999089631971 0.0 0.0 0.0 16.28999089631971 0.0 0.0 0.0 34.383488856416385" Properties=species:S:1:pos:R:3:initial_magmoms:R:1 pbc="T T T"
Si       2.25978138       0.53806752      -0.30150898       0.00000000
Si      -0.81945216       2.22303833       0.49660101       0.00000000
Si      -1.28972817      -0.87013035      -1.85739711       0.00000000
Si      -0.35575731      -1.76608035       1.66488384       0.00000000
Si       2.56117896       0.98710788       2.03158396       0.00000000
Si      -2.68941384      -1.54909755       1.62283281       0.00000000
Si      -3.38124037      -0.98388342      -0.62853053       0.00000000
Si      -1.18496718       1.99466882       2.79087497       0.00000000
Si      -0.82422513      -3.21372378      -1.63524526       0.00000000
Si       0.95464287       3.83635106      -0.14692073       0.00000000
