10
Lattice="16.28999089631971 0.0 0.0 0.0 16.28999089631971 0.0 0.0 0.0 34.383488856416385" Properties=species:S:1:pos:R:3:initial_magmoms:R:1 pbc="T T T"
Si       1.53156951       0.37261746       1.71508377       0.00000000
Si      -0.41195781       2.11173690      -0.99426790       0.00000000
Si      -2.09218986      -1.00747134       0.64623803       0.00000000
Si       1.60766010      -1.22600169      -1.45139664       0.00000000
Si       2.85570216       2.02888759       0.66844978       0.00000000
Si       2.38834206      -1.88372673       1.92623289       0.00000000
Si      -3.32889408      -0.64145133      -1.36096802       0.00000000
Si      -1.49506362      -3.27997521       0.59631318       0.00000000
Si       1.73726334       3.02439230      -1.17055215       0.00000000
Si      -0.71335539       1.66269654      -3.32736084       0.00000000
