10
Lattice="16.28999089631971 0.0 0.0 0.0 16.28999089631971 0.0 0.0 0.0 34.383488856416385" Properties=species:S:1:pos:R:3:initial_magmoms:R:1 pbc="T T T"
Si      -1.79266563      -1.00233185       1.19790595       0.00000000
Si       1.00333368       1.89511344       1.04889814       0.00000000
Si       1.95258456      -1.49042097       0.00531947       0.00000000
Si      -1.72634904       0.17831034      -1.81173206       0.00000000
Si      -0.26567361      -2.13943013       2.56230888       0.00000000
Si      -1.17283113       2.48223762      -1.95215431       0.00000000
Si       2.16505503      -1.40691354      -2.38260145       0.00000000
Si       0.93773385       3.27274245      -0.97023009       0.00000000
Si       2.47065543       0.60877359       2.52707954       0.00000000
Si      -1.18128564      -1.74667733      -3.10317663       0.00000000
