10
Lattice="16.28999089631971 0.0 0.0 0.0 16.28999089631971 0.0 0.0 0.0 34.383488856416385" Properties=species:S:1:pos:R:3:initial_magmoms:R:1 pbc="T T T"
Si       1.47119877       1.01696841       1.52154385       0.00000000
Si       1.53391527      -0.91072503      -1.58965273       0.00000000
Si      -1.16674030       1.68485841      -1.34429202       0.00000000
Si      -1.32488525      -1.62321053       1.30985491       0.00000000
Si       2.76732891       2.44301130      -0.02173038       0.00000000
Si       1.07295714      -3.17525399      -1.61740022       0.00000000
Si       0.79123788       3.33262449      -1.52270804       0.00000000
Si       0.00317655       2.27633202       2.97916391       0.00000000
Si      -3.25022057      -1.92791987      -0.29136585       0.00000000
Si      -2.14839688       0.45299232      -3.18745435       0.00000000
