10
Lattice="16.28999089631971 0.0 0.0 0.0 16.28999089631971 0.0 0.0 0.0 34.383488856416385" Properties=species:S:1:pos:R:3:initial_magmoms:R:1 pbc="T T T"
Si      -1.35668007      -1.35614902       1.35876747       0.00000000
Si       1.35659862      -1.35782851      -1.35780473       0.00000000
Si      -1.35731538       1.35744570      -1.35773597       0.00000000
Si       1.35943308       1.35738054       1.35687638       0.00000000
Si       2.71239903      -0.00156384       2.71392468       0.00000000
Si       0.00203625       2.71552671      -2.71392468       0.00000000
Si       2.71451673      -2.71507861       0.00010315       0.00000000
Si      -2.71472850       0.00034209      -2.71488741       0.00000000
Si       2.71480995       2.71541268       0.00013753       0.00000000
Si      -2.71544526       2.71502172       0.00003438       0.00000000
