10
Lattice="16.28999089631971 0.0 0.0 0.0 16.28999089631971 0.0 0.0 0.0 34.383488856416385" Properties=species:S:1:pos:R:3:initial_magmoms:R:1 pbc="T T T"
Si       0.66407814       1.69745384      -1.54663896       0.00000000
Si       1.64336778      -1.72172661      -0.50069264       0.00000000
Si      -1.91739816      -0.88744499      -1.50641026       0.00000000
Si       0.84916512       1.06548329       2.40196311       0.00000000
Si       1.97174160       0.28417091      -2.97238551       0.00000000
Si       2.10880566       3.04040144       0.00278506       0.00000000
Si      -1.81550421      -2.01602175       2.65492258       0.00000000
Si       3.16131885      -1.84414596       1.29873387       0.00000000
Si      -0.74490912      -2.45648706      -2.95158348       0.00000000
Si       3.49485660      -0.93054833      -1.73148470       0.00000000
