10
Lattice="16.28999089631971 0.0 0.0 0.0 16.28999089631971 0.0 0.0 0.0 34.383488856416385" Properties=species:S:1:pos:R:3:initial_magmoms:R:1 pbc="T T T"
Si       1.55125435      -0.09044208      -1.78075627       0.00000000
Si      -2.02176886       1.10231172      -0.53538560       0.00000000
Si       0.98165658       1.23186609       1.84316233       0.00000000
Si      -0.48904470      -2.29018178       0.67051279       0.00000000
Si       0.80996649      -1.97543943      -2.95846019       0.00000000
Si      -1.17480289       3.02109453      -1.75875082       0.00000000
Si      -2.98180372      -0.35948772      -2.14553090       0.00000000
Si       3.63749836      -0.68437548      -0.69623165       0.00000000
Si      -1.55409925      -2.10899300      -2.80314988       0.00000000
Si       2.14839688      -0.45299232       3.18745435       0.00000000
