10
Lattice="16.28999089631971 0.0 0.0 0.0 16.28999089631971 0.0 0.0 0.0 34.383488856416385" Properties=species:S:1:pos:R:3:initial_magmoms:R:1 pbc="T T T"
Si       0.55809540       0.88661583      -2.03103382       0.00000000
Si      -0.74354076       1.99031220       0.92656678       0.00000000
Si       1.66666248      -1.27924881       1.00791816       0.00000000
Si      -1.85570793      -1.38601673      -0.54738545       0.00000000
Si      -2.39055750       2.27770038      -0.73862652       0.00000000
Si       0.41790366      -1.07412025      -3.29665637       0.00000000
Si      -1.75376511      -2.67203960       1.41123671       0.00000000
Si      -1.54968399       1.30961826       2.96574949       0.00000000
Si       2.53364886       2.04900507      -1.64267210       0.00000000
Si      -0.90622899      -2.73039038      -2.25002238       0.00000000
