10
Lattice="16.28999089631971 0.0 0.0 0.0 16.28999089631971 0.0 0.0 0.0 34.383488856416385" Properties=species:S:1:pos:R:3:initial_magmoms:R:1 pbc="T T T"
Si      -0.80614323      -0.68069394       2.03918271       0.00000000
Si       0.74354076      -1.99031220      -0.92656678       0.00000000
Si      -1.64701674       0.28738818      -1.66519330       0.00000000
Si       1.55251845       1.78336404       0.26647219       0.00000000
Si       1.30163616      -1.10369637      -2.95760060       0.00000000
Si      -0.22921659       0.51808716      -3.52362191       0.00000000
Si       3.54159261       0.74266110      -0.33341688       0.00000000
Si       0.57031290       3.41881488      -1.13472453       0.00000000
Si      -1.98298170       1.18486944       2.85926376       0.00000000
Si       1.08797652      -1.02752433       3.35981887       0.00000000
