10
Lattice="16.28999089631971 0.0 0.0 0.0 16.28999089631971 0.0 0.0 0.0 34.383488856416385" Properties=species:S:1:pos:R:3:initial_magmoms:R:1 pbc="T T T"
Si      -1.66666248       1.27924881      -1.00791816       0.00000000
Si      -1.07849574      -2.06095771       0.39637308       0.00000000
Si       0.36320184       1.14153315       2.04946338       0.00000000
Si       2.13102522      -0.00933091      -1.05388891       0.00000000
Si       2.02618278       2.61154275       1.27298062       0.00000000
Si       3.45388725       0.86203748       0.61536164       0.00000000
Si       0.68939280      -0.71434486       3.47885458       0.00000000
Si      -3.42042759      -1.39279078       0.40331855       0.00000000
Si      -0.47467431      -2.65609657       2.60180006       0.00000000
Si       2.07713790       1.40671806      -2.91561833       0.00000000
