10
Lattice="16.28999089631971 0.0 0.0 0.0 16.28999089631971 0.0 0.0 0.0 34.383488856416385" Properties=species:S:1:pos:R:3:initial_magmoms:R:1 pbc="T T T"
Si      -1.70163711      -1.67973913       0.19268518       0.00000000
Si      -0.21247047      -0.08350743       2.38792092       0.00000000
Si       1.97433171      -0.79354684      -1.19173239       0.00000000
Si      -0.03728781       2.16283470      -1.39211947       0.00000000
Si       1.64814075       1.06233117      -2.62112359       0.00000000
Si      -3.34634067      -0.33976379      -0.72057518       0.00000000
Si      -2.16505503       1.40691354       2.38260145       0.00000000
Si       0.81026460      -2.73529855      -2.06878691       0.00000000
Si      -1.15450488      -3.62706202      -1.01830198       0.00000000
Si       1.73128491       0.77839647       3.46838278       0.00000000
