10
Lattice="16.28999089631971 0.0 0.0 0.0 16.28999089631971 0.0 0.0 0.0 34.383488856416385" Properties=species:S:1:pos:R:3:initial_magmoms:R:1 pbc="T T T"
Si      -1.35493704      -1.35599589       1.35642939       0.00000000
Si      -1.35664749       1.35646830      -1.35770158       0.00000000
Si       1.35812988      -1.35757602      -1.35777035       0.00000000
Si       1.35856971       1.35902583       1.35728898       0.00000000
Si      -2.71464705       2.71474479       0.00030945       0.00000000
Si       0.00071676      -2.71467963      -2.71492180       0.00000000
Si      -2.71450044      -2.71529865      -0.00013753       0.00000000
Si       2.71575477       2.71458189       0.00020630       0.00000000
Si       2.71544526      -2.71502172      -0.00003438       0.00000000
Si      -0.00376299      -2.71625976       2.71437166       0.00000000
