10
Lattice="16.28999089631971 0.0 0.0 0.0 16.28999089631971 0.0 0.0 0.0 34.383488856416385" Properties=species:S:1:pos:R:3:initial_magmoms:R:1 pbc="T T T"
Si      -1.17729459      -0.17601345       2.19428672       0.00000000
Si      -0.68475015      -2.12133267      -1.58229466       0.00000000
Si       2.41121322      -0.78912018       1.04219851       0.00000000
Si       2.49696378       1.02107349      -1.11746401       0.00000000
Si       0.11969892       3.04834770       0.62430136       0.00000000
Si      -1.91111022      -0.59789187      -2.79912701       0.00000000
Si      -3.18700818       1.00089018       0.92900800       0.00000000
Si       0.54201717       1.08853038       3.36411681       0.00000000
Si      -0.58075479      -2.67955839       2.38910367       0.00000000
Si       1.09374318       2.14244451      -2.78884634       0.00000000
