10
Lattice="16.28999089631971 0.0 0.0 0.0 16.28999089631971 0.0 0.0 0.0 34.383488856416385" Properties=species:S:1:pos:R:3:initial_magmoms:R:1 pbc="T T T"
Si       0.06559983      -1.37762901       2.01912823       0.00000000
Si      -0.79071660       2.27265048       0.46338654       0.00000000
Si      -2.11056498      -0.79050483      -0.98192422       0.00000000
Si       1.70284257      -0.41058945      -1.82683017       0.00000000
Si      -2.44027458       1.44471123       2.04043569       0.00000000
Si      -0.93773385      -3.27274245       0.97023009       0.00000000
Si      -1.19021256       0.02135619       3.50304135       0.00000000
Si      -1.88092485      -0.30442752      -3.30504595       0.00000000
Si      -1.42571709       3.02811552      -1.85371807       0.00000000
Si      -3.85401852       0.20219148       0.50127716       0.00000000
