10
Lattice="16.28999089631971 0.0 0.0 0.0 16.28999089631971 0.0 0.0 0.0 34.383488856416385" Properties=species:S:1:pos:R:3:initial_magmoms:R:1 pbc="T T T"
Si      -1.35718506      -1.35555606       1.35708268       0.00000000
Si       1.35681039      -1.35703845      -1.35749528       0.00000000
Si       1.35821133       1.35803214       1.35663569       0.00000000
Si      -1.35728280       1.35826020      -1.35746090       0.00000000
Si       0.00099369       2.71516833      -2.71299632       0.00000000
Si       0.00172674      -2.71407690      -2.71416536       0.00000000
Si       2.71450044      -2.71419093      -0.00010315       0.00000000
Si       2.71490769       2.71494027      -0.00020630       0.00000000
Si      -2.71575477      -2.71458189      -0.00020630       0.00000000
Si      -2.71546155       2.71552671      -0.00010315       0.00000000
