10
Lattice="16.28999089631971 0.0 0.0 0.0 16.28999089631971 0.0 0.0 0.0 34.383488856416385" Properties=species:S:1:pos:R:3:initial_magmoms:R:1 pbc="T T T"
Si       1.35169533       1.35006633      -1.36811979       0.00000000
Si       1.39996260      -1.30803813       1.37252088       0.00000000
Si      -1.36304946      -1.36475991      -1.36836047       0.00000000
Si      -1.24144461       1.35132066       1.53381391       0.00000000
Si      -0.10503792      -2.61438210       2.76288679       0.00000000
Si      -2.70343953       2.71243161       0.02083641       0.00000000
Si       2.71099809       2.72147256       0.00942108       0.00000000
Si      -0.00259011       2.71093293      -2.72767808       0.00000000
Si       2.71195920      -0.00628794      -2.72877835       0.00000000
Si      -2.71826343      -0.00622278      -2.72760931       0.00000000
