10
Lattice="16.28999089631971 0.0 0.0 0.0 16.28999089631971 0.0 0.0 0.0 34.383488856416385" Properties=species:S:1:pos:R:3:initial_magmoms:R:1 pbc="T T T"
Si      -1.45836225      -1.43381322       1.23364589       0.00000000
Si       1.24144461      -1.35132066      -1.53381391       0.00000000
Si       1.30170132       1.43602866       1.57387070       0.00000000
Si      -1.46199492       1.36111095      -1.51297751       0.00000000
Si       2.64140721      -2.65935879      -0.16129304       0.00000000
Si      -2.74413195      -2.59820613      -0.33245414       0.00000000
Si       2.59335171       2.78495469      -0.06030867       0.00000000
Si       2.59313994      -0.00125433      -2.90193370       0.00000000
Si      -3.42410913      -0.15449436       1.88658870       0.00000000
Si      -2.63766051       2.94384735      -0.11851995       0.00000000
