10
Lattice="16.28999089631971 0.0 0.0 0.0 16.28999089631971 0.0 0.0 0.0 34.383488856416385" Properties=species:S:1:pos:R:3:initial_magmoms:R:1 pbc="T T T"
Si       0.16977438      -1.32817257       1.94889162       0.00000000
Si      -1.63067787       1.61746668       0.67439813       0.00000000
Si      -1.71931176      -1.26454383      -1.16983010       0.00000000
Si       1.30057731       1.70903277      -1.19004760       0.00000000
Si      -2.43071235       1.73493387      -1.57032920       0.00000000
Si      -0.42231825       1.95981732      -2.73981546       0.00000000
Si       1.86919605      -1.87765056      -2.32191830       0.00000000
Si       2.20838643       1.75723488       2.11757711       0.00000000
Si       1.24752078       3.29160627       0.61257658       0.00000000
Si      -0.54201717      -1.08853038      -3.36411681       0.00000000
