10
Lattice="16.28999089631971 0.0 0.0 0.0 16.28999089631971 0.0 0.0 0.0 34.383488856416385" Properties=species:S:1:pos:R:3:initial_magmoms:R:1 pbc="T T T"
Si      -1.35619137      -1.35500220       1.35790788       0.00000000
Si       1.35630540      -1.35765747      -1.35704830       0.00000000
Si      -1.35814617       1.35814617      -1.35739213       0.00000000
Si       1.35899325       1.35834165       1.35708268       0.00000000
Si       2.71221984      -0.00003258       2.71392468       0.00000000
Si      -0.00092853       2.71269225      -2.71433728       0.00000000
Si       0.00114030      -2.71508688      -2.71282440       0.00000000
Si       0.00213399       2.71090052       2.71808508       0.00000000
Si       2.71368594      -0.00050499      -2.71560947       0.00000000
Si       2.71435383       2.71505346       0.00003438       0.00000000
