10
Lattice="16.28999089631971 0.0 0.0 0.0 16.28999089631971 0.0 0.0 0.0 34.383488856416385" Properties=species:S:1:pos:R:3:initial_magmoms:R:1 pbc="T T T"
Si      -1.39629735       1.39308075       1.35223461       0.00000000
Si       1.90058688      -0.15957684       1.49956794       0.00000000
Si      -0.49822965      -2.27190114      -0.70520575       0.00000000
Si      -2.02140981       0.23916978      -2.85737267       0.00000000
Si      -0.18251316      -3.08175849       1.86771216       0.00000000
Si       0.92471814      -1.49561748       3.22819881       0.00000000
Si       1.81550421       2.01602175      -2.65492258       0.00000000
Si       2.61542466       2.02419281       1.88043406       0.00000000
Si       3.93268293      -0.81803493       0.52121960       0.00000000
Si      -2.71246419      -2.50890435      -1.71315829       0.00000000
