10
Lattice="16.28999089631971 0.0 0.0 0.0 16.28999089631971 0.0 0.0 0.0 34.383488856416385" Properties=species:S:1:pos:R:3:initial_magmoms:R:1 pbc="T T T"
Si      -1.53156951      -0.37261746      -1.71508377       0.00000000
Si       1.32413265       1.65627013      -1.04663399       0.00000000
Si      -0.94947894       1.34437365       1.70263694       0.00000000
Si       0.85677255      -2.25634419       0.21114912       0.00000000
Si       0.07609059      -1.59861915      -3.16648041       0.00000000
Si       0.90622899       2.73039038       2.25002238       0.00000000
Si      -0.84753612       0.05835078       3.66125909       0.00000000
Si      -1.94352732       1.73911944      -2.70935167       0.00000000
Si      -1.08980100      -3.73345623       0.27864395       0.00000000
Si       1.46432439       3.61700621       0.21898856       0.00000000
