10
Lattice="16.28999089631971 0.0 0.0 0.0 16.28999089631971 0.0 0.0 0.0 34.383488856416385" Properties=species:S:1:pos:R:3:initial_magmoms:R:1 pbc="T T T"
Si       1.35747828       1.35671265       1.35883624       0.00000000
Si      -1.35930276      -1.35895252       1.35814857       0.00000000
Si       1.35863487      -1.36054894      -1.36014281       0.00000000
Si      -1.36609569       1.36120869      -1.35986774       0.00000000
Si      -2.71386513       2.71440270       0.00202863       0.00000000
Si       2.71447242       2.71494027       0.00484807       0.00000000
Si       2.71412881      -0.00105885       2.71591892       0.00000000
Si      -0.00109143       2.71428867       2.71609084       0.00000000
Si       2.71226871      -2.71866158       0.00058452       0.00000000
Si      -2.71590138      -0.00112401       2.71595330       0.00000000
