10
Lattice="16.28999089631971 0.0 0.0 0.0 16.28999089631971 0.0 0.0 0.0 34.383488856416385" Properties=species:S:1:pos:R:3:initial_magmoms:R:1 pbc="T T T"
Si      -1.52311500       1.21471924      -1.24090081       0.00000000
Si       1.20428712      -1.55262175      -1.23450547       0.00000000
Si       1.74824280       0.95114215       1.20074087       0.00000000
Si      -1.85148882      -0.79117828       1.23079205       0.00000000
Si      -0.33353775      -0.91359763       3.03021857       0.00000000
Si      -0.16327467       2.54352223      -2.59588609       0.00000000
Si       2.55407652      -0.17068511      -2.59148500       0.00000000
Si       3.23593261      -0.94520023       1.38125429       0.00000000
Si       1.05231771       1.08260734       3.45361708       0.00000000
Si      -2.83077846       2.62800217       0.18484574       0.00000000
