10
Lattice="16.28999089631971 0.0 0.0 0.0 16.28999089631971 0.0 0.0 0.0 34.383488856416385" Properties=species:S:1:pos:R:3:initial_magmoms:R:1 pbc="T T T"
Si       1.21015152      -1.92153582      -0.26502808       0.00000000
Si      -1.97555346      -1.16238924      -0.38836172       0.00000000
Si       0.26440299       0.68396823       2.23582200       0.00000000
Si       0.60465222       1.35676152      -1.85915066       0.00000000
Si       3.35306844       0.94449420       0.45190245       0.00000000
Si       2.17997667       1.97508105       2.15598349       0.00000000
Si      -2.53364886      -2.04900507       1.64267210       0.00000000
Si      -3.50640621       0.45939429      -0.95438303       0.00000000
Si       3.20587200      -1.37174832      -1.29450470       0.00000000
Si      -1.72467117       1.72467117       2.83571106       0.00000000
