10
Lattice="16.28999089631971 0.0 0.0 0.0 16.28999089631971 0.0 0.0 0.0 34.383488856416385" Properties=species:S:1:pos:R:3:initial_magmoms:R:1 pbc="T T T"
Si       2.29546367      -0.39169566       0.13186075       0.00000000
Si      -0.19069074       2.10289076       1.00389529       0.00000000
Si      -1.00771569       0.17263816      -2.16224129       0.00000000
Si      -1.63981656      -1.55472642       0.85669949       0.00000000
Si      -3.22333488       0.11973313       0.48291637       0.00000000
Si      -2.18641122       1.55310326       2.03337190       0.00000000
Si       2.25943019      -2.10184236      -1.42705312       0.00000000
Si      -1.46627919      -3.18009375      -0.78679782       0.00000000
Si      -3.07946160       1.12198841      -1.61200201       0.00000000
Si       2.73842135      -0.98200260       2.37005521       0.00000000
