10
Lattice="16.28999089631971 0.0 0.0 0.0 16.28999089631971 0.0 0.0 0.0 34.383488856416385" Properties=species:S:1:pos:R:3:initial_magmoms:R:1 pbc="T T T"
Si       1.35623047       1.35767376      -1.35783912       0.00000000
Si      -1.35846960      -1.35731538      -1.35756405       0.00000000
Si       1.35852736      -1.35993807       1.35560419       0.00000000
Si      -1.36298497       1.35868374       1.35904254       0.00000000
Si       0.01936555      -2.70199787       2.71911659       0.00000000
Si       2.71545178      -2.71119194       0.00030945       0.00000000
Si      -0.00109632       2.71404432      -2.71437166       0.00000000
Si       2.71395310      -0.00016290      -2.71536878       0.00000000
Si      -2.71512013       0.00045612      -2.71464673       0.00000000
Si       2.71497937       2.71494027      -0.00048137       0.00000000
