10
Lattice="16.28999089631971 0.0 0.0 0.0 16.28999089631971 0.0 0.0 0.0 34.383488856416385" Properties=species:S:1:pos:R:3:initial_magmoms:R:1 pbc="T T T"
Si      -1.99572048      -0.54978750       1.02947662       0.00000000
Si       0.19069074      -2.10289076      -1.00389529       0.00000000
Si       0.53053290       1.65108924      -1.61079859       0.00000000
Si       2.00271608       0.71086302       1.25530750       0.00000000
Si       0.14719644       2.31624252       1.74640714       0.00000000
Si       2.70940886       1.26811134      -0.91896802       0.00000000
Si      -0.32829237       3.36624705      -0.27025437       0.00000000
Si       2.48615441      -2.49458642      -0.87203453       0.00000000
Si      -3.03264414      -1.98315763      -0.52097891       0.00000000
Si      -3.20587200       1.37174832       1.29450470       0.00000000
