10
Lattice="16.28999089631971 0.0 0.0 0.0 16.28999089631971 0.0 0.0 0.0 34.383488856416385" Properties=species:S:1:pos:R:3:initial_magmoms:R:1 pbc="T T T"
Si      -1.32286203      -0.87136839      -1.66925055       0.00000000
Si      -1.42770447       1.74950527       0.65761898       0.00000000
Si       2.36406574       0.13355356      -0.15531031       0.00000000
Si      -0.44370702      -1.42537614       1.86004464       0.00000000
Si      -3.09068541       0.27949567       1.43410174       0.00000000
Si      -3.45388725      -0.86203748      -0.61536164       0.00000000
Si       1.06505455      -0.18118878       3.47366267       0.00000000
Si       3.18111839      -1.72642953       1.02610703       0.00000000
Si      -1.37674935       0.54468058      -3.53097998       0.00000000
Si       1.55409925       2.10899300       2.80314988       0.00000000
