10
Lattice="16.28999089631971 0.0 0.0 0.0 16.28999089631971 0.0 0.0 0.0 34.383488856416385" Properties=species:S:1:pos:R:3:initial_magmoms:R:1 pbc="T T T"
Si      -1.38592062       1.31064453       1.43376134       0.00000000
Si      -1.13213871      -1.41284799      -1.55909752       0.00000000
Si       1.32998604      -1.40353011       1.41740854       0.00000000
Si       1.11105945       1.61052714      -1.41142035       0.00000000
Si       0.77970456      -2.89316753      -1.84362105       0.00000000
Si      -1.05293673       2.69127090      -2.00969339       0.00000000
Si      -1.62878823       0.68017266      -3.24815297       0.00000000
Si       2.70503988      -2.58845819      -0.24240029       0.00000000
Si      -2.03856318       3.14792847       0.10673329       0.00000000
Si      -2.68011225      -2.62568736      -0.01925133       0.00000000
