10
Lattice="16.28999089631971 0.0 0.0 0.0 16.28999089631971 0.0 0.0 0.0 34.383488856416385" Properties=species:S:1:pos:R:3:initial_magmoms:R:1 pbc="T T T"
Si       1.34881656      -1.34682462       1.35347241       0.00000000
Si       1.34175890       1.37350764      -1.34301295       0.00000000
Si      -1.35418770      -1.34537481      -1.37809100       0.00000000
Si      -1.36565586       1.36687761       1.34786790       0.00000000
Si      -2.00683026       0.49190913      -2.70511906       0.00000000
Si      -0.36525438       2.35369323      -2.57683419       0.00000000
Si       2.63899859       0.06812478      -2.75482730       0.00000000
Si      -0.00817758      -2.70505224       2.70746058       0.00000000
Si       2.70546993      -2.70733284      -0.00794259       0.00000000
Si       2.70584623       0.00853596       2.70773564       0.00000000
