10
Lattice="16.28999089631971 0.0 0.0 0.0 16.28999089631971 0.0 0.0 0.0 34.383488856416385" Properties=species:S:1:pos:R:3:initial_magmoms:R:1 pbc="T T T"
Si      -1.35508365      -1.35703845      -1.35667008       0.00000000
Si      -1.35681039       1.35703845       1.35749528       0.00000000
Si       1.35769005      -1.35715248       1.35739213       0.00000000
Si       1.35878148       1.35720135      -1.35945514       0.00000000
Si      -2.71399545       0.00148239       2.71457796       0.00000000
Si      -0.00731421      -2.71023246      -2.71856645       0.00000000
Si       0.00140094       2.71507059       2.71413098       0.00000000
Si       0.00231318      -2.71518462       2.71413098       0.00000000
Si      -2.71409319       2.71529865       0.00003438       0.00000000
Si      -2.70930393      -0.00563634      -2.72011371       0.00000000
