10
Lattice="16.28999089631971 0.0 0.0 0.0 16.28999089631971 0.0 0.0 0.0 34.383488856416385" Properties=species:S:1:pos:R:3:initial_magmoms:R:1 pbc="T T T"
Si       1.35623706       1.35578412      -1.35629186       0.00000000
Si       1.35220032      -1.35798327       1.36017720       0.00000000
Si      -1.35614250       1.35487188       1.35942076       0.00000000
Si      -1.35850455      -1.35863487      -1.35625748       0.00000000
Si       0.01275507       2.70299970       2.71849768       0.00000000
Si      -0.00050499       2.71321353      -2.71361522       0.00000000
Si       2.71408897      -0.00262269      -2.71323701       0.00000000
Si      -2.71479366       2.71358820       0.00048137       0.00000000
Si       2.71474709       2.71446786       0.00096274       0.00000000
Si       0.00006516      -2.71621089      -2.71351207       0.00000000
