10
Lattice="16.28999089631971 0.0 0.0 0.0 16.28999089631971 0.0 0.0 0.0 34.383488856416385" Properties=species:S:1:pos:R:3:initial_magmoms:R:1 pbc="T T T"
Si      -1.29404502       1.92919212       0.12158008       0.00000000
Si       2.27292741       0.63773721       0.29439160       0.00000000
Si      -0.60465222      -1.35676152       1.85915066       0.00000000
Si      -0.47993598      -1.34869797      -1.95600901       0.00000000
Si       3.13175268      -1.07742060      -1.04615262       0.00000000
Si       2.74841622      -0.41226732       2.31105311       0.00000000
Si       0.60549930      -3.27829734       1.59412258       0.00000000
Si      -3.38962320       1.27896048       1.04212975       0.00000000
Si       2.60121978      -2.72850984       0.56464597       0.00000000
Si      -2.58659136      -0.51072408      -2.80232467       0.00000000
