10
Lattice="16.28999089631971 0.0 0.0 0.0 16.28999089631971 0.0 0.0 0.0 34.383488856416385" Properties=species:S:1:pos:R:3:initial_magmoms:R:1 pbc="T T T"
Si      -1.21559238      -1.00294272      -1.74743865       0.00000000
Si       1.88004260       1.34229600      -0.56550556       0.00000000
Si       0.87327432      -2.12561694       0.63530408       0.00000000
Si      -1.42716690       1.40115177       1.42787832       0.00000000
Si      -2.49044778      -2.48973102      -0.36535916       0.00000000
Si      -0.53043498       3.49531272       0.67556717       0.00000000
Si      -1.03063572      -3.23418402       1.34061298       0.00000000
Si       1.64732692       1.75638780      -2.87064471       0.00000000
Si       0.50244876      -2.05483689      -3.12607979       0.00000000
Si       1.79704179       3.22349778       0.83490034       0.00000000
