10
Lattice="16.28999089631971 0.0 0.0 0.0 16.28999089631971 0.0 0.0 0.0 34.383488856416385" Properties=species:S:1:pos:R:3:initial_magmoms:R:1 pbc="T T T"
Si      -1.90391004      -1.10856708       0.70530890       0.00000000
Si       1.27929998       0.30312432       1.94727560       0.00000000
Si      -0.87327432       2.12561694      -0.63530408       0.00000000
Si       0.60874983      -1.18037340      -2.02635766       0.00000000
Si      -2.08886670       1.12267422      -2.38274273       0.00000000
Si      -3.36372210      -0.36411408      -1.00066324       0.00000000
Si      -1.88634942      -0.70107273       3.05569675       0.00000000
Si      -0.39550491       1.09718037       3.49539305       0.00000000
Si      -1.25810928      -3.27360582       1.34212585       0.00000000
Si      -0.37082556       0.07078005      -3.76138387       0.00000000
