10
Lattice="16.28999089631971 0.0 0.0 0.0 16.28999089631971 0.0 0.0 0.0 34.383488856416385" Properties=species:S:1:pos:R:3:initial_magmoms:R:1 pbc="T T T"
Si       1.35604380      -1.34718300      -1.35918007       0.00000000
Si      -1.35568638      -1.35474156       1.35821734       0.00000000
Si      -1.35363384       1.35811263      -1.36072733       0.00000000
Si       1.35929529       1.35965367       1.35752967       0.00000000
Si      -2.71432125      -2.71309950      -0.00017192       0.00000000
Si       0.00181533      -2.71272483       2.71554070       0.00000000
Si      -2.71365336       0.00245895       2.71547193       0.00000000
Si       2.71729322      -2.71301805      -0.00144411       0.00000000
Si      -2.71226871       2.71866158      -0.00058452       0.00000000
Si       2.71483343       2.71664162       0.00037822       0.00000000
