10
Lattice="16.28999089631971 0.0 0.0 0.0 16.28999089631971 0.0 0.0 0.0 34.383488856416385" Properties=species:S:1:pos:R:3:initial_magmoms:R:1 pbc="T T T"
Si      -1.51795107       0.12241935      -1.79942651       0.00000000
Si      -1.04414013      -0.98991072       1.87740831       0.00000000
Si       1.38585546       1.99620496       0.42339852       0.00000000
Si       1.98418716      -1.47833379      -0.28655216       0.00000000
Si       0.33353775       0.91359763      -3.03021857       0.00000000
Si       2.08178055       1.86473978      -1.82947770       0.00000000
Si       0.87107517      -0.77276502       3.28661639       0.00000000
Si       2.51037045      -1.80540441       1.97058761       0.00000000
Si      -2.31215373       2.90962925       1.10322924       0.00000000
Si      -3.16131885       1.84414596      -1.29873387       0.00000000
