10
Lattice="16.28999089631971 0.0 0.0 0.0 16.28999089631971 0.0 0.0 0.0 34.383488856416385" Properties=species:S:1:pos:R:3:initial_magmoms:R:1 pbc="T T T"
Si       0.52618329      -0.32707062       2.25713977       0.00000000
Si      -1.98418716       1.47833379       0.28655216       0.00000000
Si       1.58528320       1.44673119      -1.36241212       0.00000000
Si       0.11776041      -2.21833962      -1.29392018       0.00000000
Si       1.02062016      -0.48780405      -2.59069418       0.00000000
Si      -0.59833170       3.47453875       0.70995067       0.00000000
Si       0.09759339       3.34307357      -1.54292554       0.00000000
Si       2.29166158       1.17758781       2.66795393       0.00000000
Si      -3.02832729       0.48842307       2.16396046       0.00000000
Si      -1.11311199       0.70556877       3.57316854       0.00000000
