10
Lattice="16.28999089631971 0.0 0.0 0.0 16.28999089631971 0.0 0.0 0.0 34.383488856416385" Properties=species:S:1:pos:R:3:initial_magmoms:R:1 pbc="T T T"
Si      -1.17962406      -1.93065822       0.51399906       0.00000000
Si       2.10989709      -0.84781305       0.70238630       0.00000000
Si      -0.84486456       1.37013561       1.78010298       0.00000000
Si      -0.34256241       0.81371808      -2.27240605       0.00000000
Si       2.63029743       1.07455356       2.11118178       0.00000000
Si      -3.35850001      -1.54768032      -0.17783150       0.00000000
Si       3.43541439      -0.69975324      -1.20043142       0.00000000
Si      -1.55488050      -0.21321981       3.42387535       0.00000000
Si       0.95179212       2.70190827       2.55720465       0.00000000
Si       0.06553467      -3.85973631       0.17006083       0.00000000
