10
Lattice="16.28999089631971 0.0 0.0 0.0 16.28999089631971 0.0 0.0 0.0 34.383488856416385" Properties=species:S:1:pos:R:3:initial_magmoms:R:1 pbc="T T T"
Si       1.35404109      -1.35848826       1.35897377       0.00000000
Si      -1.35931905       1.35793440       1.35594802       0.00000000
Si       1.34829072       1.36607940      -1.35989869       0.00000000
Si      -1.36990755      -1.36974465      -1.36623901       0.00000000
Si      -0.34878519       2.38047399      -2.64546023       0.00000000
Si      -2.71496796      -2.71168227       0.00278506       0.00000000
Si       2.60042157       0.02640609      -2.82178574       0.00000000
Si       2.71217097       0.00100998       2.71536878       0.00000000
Si       2.71381626      -2.71490769      -0.00319767       0.00000000
Si       2.71270854       2.71656927       0.00364465       0.00000000
