10
Lattice="16.28999089631971 0.0 0.0 0.0 16.28999089631971 0.0 0.0 0.0 34.383488856416385" Properties=species:S:1:pos:R:3:initial_magmoms:R:1 pbc="T T T"
Si      -1.34217933      -1.36435266       1.35611994       0.00000000
Si       1.35981269      -1.35288450      -1.36141500       0.00000000
Si      -1.35571632       1.36207206      -1.36165569       0.00000000
Si       1.39599929       1.35664749       1.36282473       0.00000000
Si      -2.59315359       0.07332129       2.69755813       0.00000000
Si       0.11350421      -2.58014052       2.82656505       0.00000000
Si      -2.71107690      -2.71248048      -0.00295698       0.00000000
Si       2.71332109      -2.71036278      -0.00113466       0.00000000
Si       0.00130266      -2.71156824      -2.71866960       0.00000000
Si      -2.71303170       0.00314397      -2.71873837       0.00000000
