10
Lattice="16.28999089631971 0.0 0.0 0.0 16.28999089631971 0.0 0.0 0.0 34.383488856416385" Properties=species:S:1:pos:R:3:initial_magmoms:R:1 pbc="T T T"
Si       1.33916180       1.34205979      -1.36351240       0.00000000
Si      -1.14950385       1.55262433       1.34731776       0.00000000
Si      -1.37811512      -1.37115385      -1.35832049       0.00000000
Si       1.30667954      -1.34175713       1.48440481       0.00000000
Si      -2.18394884      -0.24932660       2.43390539       0.00000000
Si      -0.69625904      -2.14566897       2.61441880       0.00000000
Si       2.70152708       2.69142565       0.02399969       0.00000000
Si       2.68080620      -2.72648892       0.02448106       0.00000000
Si       2.69608622      -0.00919408      -2.71880713       0.00000000
Si      -0.01936555       2.70199787      -2.71911659       0.00000000
