10
Lattice="16.28999089631971 0.0 0.0 0.0 16.28999089631971 0.0 0.0 0.0 34.383488856416385" Properties=species:S:1:pos:R:3:initial_magmoms:R:1 pbc="T T T"
Si      -0.30884863       2.07010062       0.99148284       0.00000000
Si       2.29446279      -0.45827028       0.06935154       0.00000000
Si      -0.57273685       0.56150001      -2.23200543       0.00000000
Si      -1.45372679      -1.74112407       0.73604776       0.00000000
Si      -2.22235415      -1.08983358      -2.67672172       0.00000000
Si      -0.07613294       1.65600882       3.29662199       0.00000000
Si      -2.59070363       2.57466708       0.59837619       0.00000000
Si      -1.73751488      -2.98569636      -1.36028035       0.00000000
Si       1.13500575       3.65291847      -0.04187911       0.00000000
Si      -3.17176793      -0.68922990       2.11468890       0.00000000
