10
Lattice="16.28999089631971 0.0 0.0 0.0 16.28999089631971 0.0 0.0 0.0 34.383488856416385" Properties=species:S:1:pos:R:3:initial_magmoms:R:1 pbc="T T T"
Si       1.27730493      -1.36712196      -1.38118552       0.00000000
Si      -0.90285975      -1.73053557       1.29677401       0.00000000
Si       0.56466304       1.93453524       1.22828206       0.00000000
Si      -1.46698245       1.32711372      -1.38747770       0.00000000
Si      -1.02062016       0.48780405       2.59069418       0.00000000
Si       2.56760162       2.73844708       0.09826807       0.00000000
Si       2.59915535      -0.00780291      -2.74600449       0.00000000
Si      -2.71184796      -2.65044816      -0.04645212       0.00000000
Si      -0.11719305       2.70905036      -2.74445723       0.00000000
Si      -0.11869436      -2.72376945      -2.74401025       0.00000000
