10
Lattice="16.28999089631971 0.0 0.0 0.0 16.28999089631971 0.0 0.0 0.0 34.383488856416385" Properties=species:S:1:pos:R:3:initial_magmoms:R:1 pbc="T T T"
Si      -0.46550304       2.34359343      -0.22215185       0.00000000
Si      -1.91471031      -1.34258922      -0.60707522       0.00000000
Si       1.76783967      -0.15019380      -1.73165662       0.00000000
Si       0.54382536      -0.68242068       2.33955704       0.00000000
Si       0.89599887      -2.30997087      -2.20865902       0.00000000
Si      -0.61915032      -3.31077960      -0.46875037       0.00000000
Si      -2.55701524       2.22984036       1.00671473       0.00000000
Si       0.46846782       1.44764343       3.30012910       0.00000000
Si       0.82422513       3.21372378       1.63524526       0.00000000
Si      -3.57293131      -1.42679223       1.06795176       0.00000000
