10
Lattice="16.28999089631971 0.0 0.0 0.0 16.28999089631971 0.0 0.0 0.0 34.474598006748145" Properties=species:S:1:pos:R:3:initial_magmoms:R:1 pbc="T T T"
Si       0.56163033      -2.32095033       0.42758868       0.00000000
Si      -1.26967518      -0.23457600      -2.23423100       0.00000000
Si       2.00174778       1.62315189      -0.23242787       0.00000000
Si      -0.92738970       0.51746814       2.38347161       0.00000000
Si       2.58183468      -2.74843251      -0.85107488       0.00000000
Si       2.07902754      -2.36437947       2.36351081       0.00000000
Si       2.60244153       2.24577198       2.21023666       0.00000000
Si      -1.32478425       1.91567142      -3.38361474       0.00000000
Si       0.89850753       1.42017849       3.75617645       0.00000000
Si      -2.61470953       2.27281338       2.55243344       0.00000000
