10
Lattice="16.28999089631971 0.0 0.0 0.0 16.28999089631971 0.0 0.0 0.0 34.474598006748145" Properties=species:S:1:pos:R:3:initial_magmoms:R:1 pbc="T T T"
Si      -1.24295958       1.46689821      -1.32154653       0.00000000
Si      -1.34130231      -1.34745504       1.36214729       0.00000000
Si       1.17876069      -1.40824118      -1.49145468       0.00000000
Si       1.37352393       1.36906047       1.35528684       0.00000000
Si       2.21350149       0.40907448      -2.77354643       0.00000000
Si       0.47022714       2.36460753      -2.67316699       0.00000000
Si      -2.67921630      -2.70029391      -0.02094678       0.00000000
Si       2.72360655      -2.68167381      -0.02618002       0.00000000
Si      -2.69913897       0.01001835       2.71641368       0.00000000
Si       0.01454697      -2.70058696       2.71599998       0.00000000
