10
Lattice="16.28999089631971 0.0 0.0 0.0 16.28999089631971 0.0 0.0 0.0 34.474598006748145" Properties=species:S:1:pos:R:3:initial_magmoms:R:1 pbc="T T T"
Si      -1.35306369      -1.35672309      -1.38191503       0.00000000
Si       1.36650294       1.35868048      -1.38139791       0.00000000
Si      -1.28511810       1.54568968       1.31713723       0.00000000
Si       1.24522389      -1.37667834       1.53805058       0.00000000
Si       0.91092051       2.10554440       2.54943242       0.00000000
Si      -2.70718623      -2.70299385      -0.00710177       0.00000000
Si       2.72520297      -2.70291240       0.00592963       0.00000000
Si       2.72520297       2.71343833      -0.00492987       0.00000000
Si      -2.70726768      -0.00072328      -2.74169736       0.00000000
Si       0.00744453      -2.71377783      -2.73997363       0.00000000
