10
Lattice="16.28999089631971 0.0 0.0 0.0 16.28999089631971 0.0 0.0 0.0 34.474598006748145" Properties=species:S:1:pos:R:3:initial_magmoms:R:1 pbc="T T T"
Si      -0.94863186      -1.75485817      -1.31334502       0.00000000
Si       0.84528810       1.88950968      -1.22771007       0.00000000
Si      -2.40552801       0.26946918       0.71490014       0.00000000
Si       2.69164557      -0.19836333       0.77885055       0.00000000
Si       1.78224003       0.62222913       2.82840102       0.00000000
Si       0.57192561      -2.16972374      -3.01487423       0.00000000
Si      -0.69201549      -3.74209712       0.10252751       0.00000000
Si       0.06178797       1.70043165      -3.44339372       0.00000000
Si       3.21619986       1.65978810      -1.30231314       0.00000000
Si       0.03896568       2.57776218       2.92878046       0.00000000
