10
Lattice="16.28999089631971 0.0 0.0 0.0 16.28999089631971 0.0 0.0 0.0 34.474598006748145" Properties=species:S:1:pos:R:3:initial_magmoms:R:1 pbc="T T T"
Si       1.35808101      -1.35658233       1.36198870       0.00000000
Si      -1.35974259       1.35755973       1.36057525       0.00000000
Si      -1.37352393      -1.36906047      -1.35528684       0.00000000
Si       1.37072205       1.36311462      -1.37217940       0.00000000
Si      -2.61648351       0.09783774      -2.67683337       0.00000000
Si       2.70964602      -2.71314837       0.00165478       0.00000000
Si       2.71350675       2.71257822       0.00268902       0.00000000
Si      -2.71482624      -2.71651551       0.00686045       0.00000000
Si       2.71379997       0.00039096       2.71884069       0.00000000
Si      -0.00133578      -2.71487837       2.71825462       0.00000000
