10
Lattice="16.28999089631971 0.0 0.0 0.0 16.28999089631971 0.0 0.0 0.0 34.474598006748145" Properties=species:S:1:pos:R:3:initial_magmoms:R:1 pbc="T T T"
Si       1.35685926      -1.35697329       1.35740358       0.00000000
Si       1.35656604       1.35764118      -1.35795517       0.00000000
Si      -1.35744570       1.35755973       1.35750700       0.00000000
Si      -1.35635427      -1.35896067      -1.35740358       0.00000000
Si       0.00148239      -2.71643406      -2.71166997       0.00000000
Si      -2.71395147       0.00107514       2.71470374       0.00000000
Si       0.00027693      -2.71517159       2.71404872       0.00000000
Si       2.71497285      -2.71479692      -0.00027580       0.00000000
Si      -2.71496470      -2.71485719       0.00003447       0.00000000
Si       2.71523349       2.71480995       0.00010342       0.00000000
