10
Lattice="16.28999089631971 0.0 0.0 0.0 16.28999089631971 0.0 0.0 0.0 34.474598006748145" Properties=species:S:1:pos:R:3:initial_magmoms:R:1 pbc="T T T"
Si      -1.50179139      -0.15007977       1.78968081       0.00000000
Si      -1.36324494       1.95183522      -0.57893225       0.00000000
Si       0.39346866      -1.26053649      -2.10057291       0.00000000
Si       2.00624382       0.80164719       1.31906781       0.00000000
Si       1.24598952      -2.66233986       0.68035657       0.00000000
Si       0.91466721       3.01604463      -0.84524867       0.00000000
Si       1.88599104      -1.25657802       2.49703100       0.00000000
Si      -0.34836165      -1.51211925       3.23878687       0.00000000
Si       1.45165077       0.42969762      -3.34489974       0.00000000
Si      -3.35234191      -1.23196383       0.89399578       0.00000000
