10
Lattice="16.28999089631971 0.0 0.0 0.0 16.28999089631971 0.0 0.0 0.0 34.474598006748145" Properties=species:S:1:pos:R:3:initial_magmoms:R:1 pbc="T T T"
Si       0.02296890      -2.25996057       0.74230746       0.00000000
Si       0.64000152       1.40576184       1.81667443       0.00000000
Si       0.32384520      -1.89162738      -1.71918021       0.00000000
Si      -1.24598952       2.66233986      -0.68035657       0.00000000
Si      -1.59435117       1.15022061       2.55843030       0.00000000
Si      -0.85252086       1.40180337      -2.78092948       0.00000000
Si       3.06072810       0.55912167      -1.14921137       0.00000000
Si      -2.63513556      -0.90310131       2.17910608       0.00000000
Si       0.76025430       3.46398705       0.63871123       0.00000000
Si      -2.74778091       2.51226009       1.10932423       0.00000000
