10
Lattice="16.28999089631971 0.0 0.0 0.0 16.28999089631971 0.0 0.0 0.0 34.474598006748145" Properties=species:S:1:pos:R:3:initial_magmoms:R:1 pbc="T T T"
Si       0.81902862       1.39862682      -1.69897809       0.00000000
Si       0.78350013       0.18907803       2.21568365       0.00000000
Si      -2.31764346       0.46063233      -0.18916222       0.00000000
Si       0.73985922      -2.03261733      -1.00531431       0.00000000
Si      -0.76222539      -1.82977425      -2.82298851       0.00000000
Si       0.01185912       0.29388789      -3.64693186       0.00000000
Si       3.15441189      -0.04064355       2.14108058       0.00000000
Si      -0.06178797      -1.70043165       3.44339372       0.00000000
Si       3.15970614       1.61127648      -1.49878399       0.00000000
Si       3.10837635      -1.94825142      -1.33306450       0.00000000
