10
Lattice="16.28999089631971 0.0 0.0 0.0 16.28999089631971 0.0 0.0 0.0 34.474598006748145" Properties=species:S:1:pos:R:3:initial_magmoms:R:1 pbc="T T T"
Si      -1.86007365      -0.18277380       1.35395612       0.00000000
Si      -0.01668096       1.64807559      -1.62116888       0.00000000
Si       0.25039359      -2.04450903      -1.17327465       0.00000000
Si       1.87106940       0.02471193       1.54142909       0.00000000
Si       3.35810205       0.39213288      -0.35198584       0.00000000
Si      -0.84118302       0.16988841      -3.33759112       0.00000000
Si       2.31787152       2.14858584      -1.62871882       0.00000000
Si       1.06660404      -1.90338876       2.89745368       0.00000000
Si      -1.33488405      -1.68941961       3.08906361       0.00000000
Si      -2.45752569       1.92174759       2.16473017       0.00000000
