10
Lattice="16.28999089631971 0.0 0.0 0.0 16.28999089631971 0.0 0.0 0.0 34.474598006748145" Properties=species:S:1:pos:R:3:initial_magmoms:R:1 pbc="T T T"
Si      -1.44490671       0.04442283      -1.89058801       0.00000000
Si      -1.94771385       0.42847587       1.32399768       0.00000000
Si       1.03335615       2.16438714      -0.46992351       0.00000000
Si       0.84059658      -2.17912959       1.27397501       0.00000000
Si      -0.42919263       1.60878411       2.81897364       0.00000000
Si      -3.46511106       0.47190501      -0.61192446       0.00000000
Si       0.57774114       3.40469145       1.48516651       0.00000000
Si       2.37457701      -1.09113678       2.75908778       0.00000000
Si      -1.61727120      -2.12607306      -2.72149524       0.00000000
Si       3.36497643       1.85779305      -0.59730722       0.00000000
