10
Lattice="16.28999089631971 0.0 0.0 0.0 16.28999089631971 0.0 0.0 0.0 34.474598006748145" Properties=species:S:1:pos:R:3:initial_magmoms:R:1 pbc="T T T"
Si      -1.12021673       1.88574669       0.86534737       0.00000000
Si      -0.09463513       0.61100532      -2.29835378       0.00000000
Si      -1.22328356      -1.95040251       0.64371005       0.00000000
Si       2.06279130      -0.18568971       1.20481892       0.00000000
Si       1.30874349       0.74580507       3.22296302       0.00000000
Si       0.29811189      -3.57075890      -0.27103944       0.00000000
Si      -1.24760453       2.67325416      -2.24850349       0.00000000
Si      -3.02106425       2.10271320      -0.57565716       0.00000000
Si      -0.90714353       1.65042135       3.22437648       0.00000000
Si       2.05857219       1.36143675      -2.83371012       0.00000000
