10
Lattice="16.28999089631971 0.0 0.0 0.0 16.28999089631971 0.0 0.0 0.0 34.474598006748145" Properties=species:S:1:pos:R:3:initial_magmoms:R:1 pbc="T T T"
Si       0.01668096      -1.64807559       1.62116888       0.00000000
Si      -0.79790049       2.10486348       0.68273532       0.00000000
Si       2.33455248       0.50051025      -0.00754994       0.00000000
Si      -0.82450206      -1.47818718      -1.71642224       0.00000000
Si       2.60255556       0.71040690      -2.34175733       0.00000000
Si      -1.16809074       3.21707952      -1.28793723       0.00000000
Si      -1.88444349       0.07283259      -3.14036184       0.00000000
Si       0.26707455      -3.69258462       0.44789423       0.00000000
Si      -2.71476108       1.76795370       1.94040383       0.00000000
Si       3.37478301      -1.25594271       1.26918303       0.00000000
