10
Lattice="16.28999089631971 0.0 0.0 0.0 16.28999089631971 0.0 0.0 0.0 34.474598006748145" Properties=species:S:1:pos:R:3:initial_magmoms:R:1 pbc="T T T"
Si      -1.05516846       1.85389974       1.00017760       0.00000000
Si       2.20356459       0.66495128       0.55197310       0.00000000
Si      -0.93823884      -1.77560090       1.31851621       0.00000000
Si      -0.49619340       0.10314828      -2.37778330       0.00000000
Si      -2.75913504      -1.97243297      -0.19429894       0.00000000
Si       0.00594585       3.58173117      -0.14275939       0.00000000
Si      -2.81834919      -0.62976230      -2.13494410       0.00000000
Si       2.28242448      -0.36907324       2.74948863       0.00000000
Si       0.76532049      -3.50511020      -0.93819223       0.00000000
Si       3.60942417      -0.20313141      -1.10487701       0.00000000
