10
Lattice="16.28999089631971 0.0 0.0 0.0 16.28999089631971 0.0 0.0 0.0 34.474598006748145" Properties=species:S:1:pos:R:3:initial_magmoms:R:1 pbc="T T T"
Si       1.35281934      -1.35713619      -1.35567985       0.00000000
Si       1.34073216       1.37375199       1.35540405       0.00000000
Si      -1.36014984       1.35648459      -1.35698989       0.00000000
Si      -1.35757602      -1.35788553       1.38026025       0.00000000
Si       2.54224998       0.04196304       2.82909052       0.00000000
Si      -2.66304033       0.08737956       2.73380268       0.00000000
Si       2.71199178       0.00123804      -2.71287658       0.00000000
Si      -0.00386073      -2.71422351      -2.71315238       0.00000000
Si       2.71169856       2.71588509      -0.00058607       0.00000000
Si      -0.00302994       2.71538010      -2.71318685       0.00000000
