10
Lattice="16.28999089631971 0.0 0.0 0.0 16.28999089631971 0.0 0.0 0.0 34.474598006748145" Properties=species:S:1:pos:R:3:initial_magmoms:R:1 pbc="T T T"
Si       1.10001483      -1.57480317      -1.36498800       0.00000000
Si      -2.37091176       0.22972158       0.07460307       0.00000000
Si       0.71322507       1.86074154      -1.43934975       0.00000000
Si      -0.52455429      -1.85815143       2.08116370       0.00000000
Si      -0.29286162       2.70319518       2.36461400       0.00000000
Si      -2.53987164       2.40253065       1.21516131       0.00000000
Si       3.29545071      -0.54810963      -1.83242933       0.00000000
Si      -3.15441189       0.04064355      -2.14108058       0.00000000
Si       2.82201444      -0.66919320       2.47679440       0.00000000
Si      -3.21619986      -1.65978810       1.30231314       0.00000000
