10
Lattice="16.28999089631971 0.0 0.0 0.0 16.28999089631971 0.0 0.0 0.0 34.474598006748145" Properties=species:S:1:pos:R:3:initial_magmoms:R:1 pbc="T T T"
Si      -1.35705474      -1.35698958       1.35764490       0.00000000
Si       1.35715248       1.35856971       1.35757595       0.00000000
Si       1.35752715      -1.35913986      -1.35829992       0.00000000
Si      -1.35785295       1.35931905      -1.35940311       0.00000000
Si       2.71373481       2.71508688       0.00010342       0.00000000
Si       2.71529865      -2.71362078       0.00017237       0.00000000
Si       0.00011403      -2.71410948       2.71511743       0.00000000
Si      -2.71572219      -2.71415835      -0.00041370       0.00000000
Si       2.71500543       0.00045612       2.71491058       0.00000000
Si      -2.71508688       0.00105885       2.71494506       0.00000000
