10
Lattice="16.28999089631971 0.0 0.0 0.0 16.28999089631971 0.0 0.0 0.0 34.474598006748145" Properties=species:S:1:pos:R:3:initial_magmoms:R:1 pbc="T T T"
Si       1.42218216      -1.26353385       1.37488221       0.00000000
Si       1.36407573       1.33099074      -1.37688174       0.00000000
Si      -1.34530965      -1.38556224      -1.38005340       0.00000000
Si      -1.28791998       1.59705531       1.64595613       0.00000000
Si      -2.68257204       2.67395463      -0.01416907       0.00000000
Si      -2.71673217      -2.71520091      -0.01037686       0.00000000
Si       0.01282023       2.69097768      -2.74090445       0.00000000
Si       2.71265967      -2.72525184      -0.02933790       0.00000000
Si      -2.70332550      -0.02585223      -2.74038733       0.00000000
Si       2.74100427       2.70314631      -0.00472302       0.00000000
