10
Lattice="16.28999089631971 0.0 0.0 0.0 16.28999089631971 0.0 0.0 0.0 34.474598006748145" Properties=species:S:1:pos:R:3:initial_magmoms:R:1 pbc="T T T"
Si       2.19833550      -0.51882021       0.54421631       0.00000000
Si      -1.17076230      -1.88284707      -0.79446756       0.00000000
Si      -0.72537741       1.34630334       1.83897951       0.00000000
Si       0.22385718       1.34765541      -1.98198022       0.00000000
Si      -1.49959224      -1.28490633       2.86673680       0.00000000
Si      -3.19349160      -0.79470765      -1.42131952       0.00000000
Si       2.29995252       0.04271238       2.85577387       0.00000000
Si      -3.32293194       1.43839071      -0.64388243       0.00000000
Si      -0.13084128       3.54573027       1.03282506       0.00000000
Si      -3.04254846       1.34700381       1.70766569       0.00000000
