10
Lattice="16.28999089631971 0.0 0.0 0.0 16.28999089631971 0.0 0.0 0.0 34.474598006748145" Properties=species:S:1:pos:R:3:initial_magmoms:R:1 pbc="T T T"
Si      -2.31717105       0.00070047      -0.13131382       0.00000000
Si       0.72537741      -1.34630334      -1.83897951       0.00000000
Si       1.40693472       0.14760369       1.93843878       0.00000000
Si       0.59453613       2.19942693      -0.80615445       0.00000000
Si      -0.77421483      -2.63120967       1.02775729       0.00000000
Si       3.02532993      -1.30359096       1.01679436       0.00000000
Si      -2.59755453       0.09208737      -2.48286194       0.00000000
Si       2.92371291      -1.86512355      -1.29476320       0.00000000
Si      -3.02557428      -2.18310435       0.43241512       0.00000000
Si       2.38681080       3.07011114       0.43193248       0.00000000
