10
Lattice="16.28999089631971 0.0 0.0 0.0 16.28999089631971 0.0 0.0 0.0 34.474598006748145" Properties=species:S:1:pos:R:3:initial_magmoms:R:1 pbc="T T T"
Si       0.53274816       0.23754078      -2.28994198       0.00000000
Si       0.24589755       2.30301504       0.59692800       0.00000000
Si       1.45077111      -1.08563076       1.65612614       0.00000000
Si      -2.37537522      -0.76048236      -0.19984936       0.00000000
Si      -2.64337830      -0.97037901       2.13435803       0.00000000
Si       2.79179649       2.35828701       0.09818371       0.00000000
Si       3.20662134       0.49228380       1.99739038       0.00000000
Si       2.31006861       2.09227131      -2.24884823       0.00000000
Si      -1.32595713       1.13774247      -3.56381356       0.00000000
Si       2.20885884      -3.25361799       1.16110511       0.00000000
