10
Lattice="16.28999089631971 0.0 0.0 0.0 16.28999089631971 0.0 0.0 0.0 34.474598006748145" Properties=species:S:1:pos:R:3:initial_magmoms:R:1 pbc="T T T"
Si       0.26800308       0.20989665      -2.33420739       0.00000000
Si      -2.33455248      -0.50051025       0.00754994       0.00000000
Si       1.04023053      -1.75645296       1.27673298       0.00000000
Si       0.41573709       2.10310416       1.37246899       0.00000000
Si       2.64337830       0.97037901      -2.13435803       0.00000000
Si      -2.31787152      -2.14858584       1.62871882       0.00000000
Si      -3.13245297       1.60435323       0.69028526       0.00000000
Si       1.65776814       0.94276746       3.04341921       0.00000000
Si       3.01979133      -0.60927858       1.87379887       0.00000000
Si      -1.47085668       1.91234826      -2.85584282       0.00000000
