10
Lattice="16.28999089631971 0.0 0.0 0.0 16.28999089631971 0.0 0.0 0.0 34.474598006748145" Properties=species:S:1:pos:R:3:initial_magmoms:R:1 pbc="T T T"
Si      -1.22404689      -1.62225594      -1.10484253       0.00000000
Si       1.44860454      -0.83983095       1.72021445       0.00000000
Si       0.54959202       1.27847571      -1.96901777       0.00000000
Si      -1.49395590       1.37975390       1.33630511       0.00000000
Si       1.03884588       3.22534574      -0.75102954       0.00000000
Si      -0.23244201      -2.22850458       2.77589618       0.00000000
Si      -1.10060127       3.48855956       0.20174546       0.00000000
Si      -2.46607794      -0.46191924      -2.77579276       0.00000000
Si       2.61166167       1.07347420       2.60921141       0.00000000
Si       0.13797630      -3.17430198      -2.27446287       0.00000000
