10
Lattice="16.28999089631971 0.0 0.0 0.0 16.28999089631971 0.0 0.0 0.0 34.474598006748145" Properties=species:S:1:pos:R:3:initial_magmoms:R:1 pbc="T T T"
Si      -2.25919494      -0.95282883       0.30182527       0.00000000
Si       1.58939316      -1.82778102      -0.56183284       0.00000000
Si       0.37300842       1.73372515      -1.81560572       0.00000000
Si       0.61505568       1.50411760       2.06975260       0.00000000
Si       2.15496242       2.86641772      -0.48709187       0.00000000
Si      -2.74092282      -1.21884453      -2.04520667       0.00000000
Si       3.14329301      -0.70768500      -1.93609451       0.00000000
Si       1.75718342       0.53334112      -3.37865039       0.00000000
Si       2.48797889       0.36124541       2.96854034       0.00000000
Si      -2.59103853      -0.70856238       2.86070374       0.00000000
