10
Lattice="16.28999089631971 0.0 0.0 0.0 16.28999089631971 0.0 0.0 0.0 34.474598006748145" Properties=species:S:1:pos:R:3:initial_magmoms:R:1 pbc="T T T"
Si       1.66985532       1.41110496       0.82470179       0.00000000
Si       1.37376828      -1.89200205      -0.46633815       0.00000000
Si      -1.22192919      -1.36674729       1.54511787       0.00000000
Si      -0.93910221       1.21893183      -2.08212898       0.00000000
Si      -3.18049218       1.46010528      -0.93508952       0.00000000
Si       3.46981954       0.89143767      -0.69531856       0.00000000
Si       2.12087655      -2.42771010       1.75296534       0.00000000
Si      -1.71118305      -3.31361732       0.32712964       0.00000000
Si       0.39196998      -1.73685609       3.29322229       0.00000000
Si      -0.03925890      -3.58418396      -1.32941019       0.00000000
