10
Lattice="16.28999089631971 0.0 0.0 0.0 16.28999089631971 0.0 0.0 0.0 34.474598006748145" Properties=species:S:1:pos:R:3:initial_magmoms:R:1 pbc="T T T"
Si       1.33525872      -1.34719929      -1.33428145       0.00000000
Si      -1.32942690      -1.36055709       1.36563267       0.00000000
Si       1.38629529       1.34988714       1.36149572       0.00000000
Si      -1.41835401       1.17856521      -1.65000689       0.00000000
Si       0.55513062       1.94875641      -2.88089694       0.00000000
Si       2.45703699       0.30602394      -2.58886277       0.00000000
Si      -2.67543702       2.69853624      -0.02919655       0.00000000
Si      -0.01195686      -2.64007143      -2.73500036       0.00000000
Si      -2.68814322      -0.00630423       2.72382917       0.00000000
Si      -2.68859934      -2.72720664      -0.01260737       0.00000000
