10
Lattice="16.28999089631971 0.0 0.0 0.0 16.28999089631971 0.0 0.0 0.0 34.474598006748145" Properties=species:S:1:pos:R:3:initial_magmoms:R:1 pbc="T T T"
Si       1.35505715      -1.35716877       1.36254030       0.00000000
Si      -1.35853713       1.35975888       1.36185081       0.00000000
Si      -1.38629529      -1.34988714      -1.36149572       0.00000000
Si       1.36891386       1.35951453      -1.37399966       0.00000000
Si      -0.12826746       2.50546716      -2.80942964       0.00000000
Si      -0.05103657      -2.69708643      -2.69577717       0.00000000
Si       2.71129850      -2.71371852      -0.00044817       0.00000000
Si      -2.71572219      -2.71044423       0.00413695       0.00000000
Si       2.70986661       2.71806795       0.00303377       0.00000000
Si       2.71257726       0.00099369       2.71928886       0.00000000
