10
Lattice="16.28999089631971 0.0 0.0 0.0 16.28999089631971 0.0 0.0 0.0 34.474598006748145" Properties=species:S:1:pos:R:3:initial_magmoms:R:1 pbc="T T T"
Si       1.09455768       2.09150568      -0.50350179       0.00000000
Si      -2.24138997       0.24117345       1.14703947       0.00000000
Si       0.93910221      -1.21893183       2.08212898       0.00000000
Si      -0.73985922      -0.22131594      -2.55943006       0.00000000
Si      -0.34564122       3.82474539       0.34746967       0.00000000
Si       2.60895753       0.19217313       2.90683078       0.00000000
Si      -2.39187699       1.56965553      -2.74793727       0.00000000
Si      -3.05639496      -1.86087186       2.06651198       0.00000000
Si       1.78160472       2.55231720      -2.73194105       0.00000000
Si       1.01375928       0.54827253      -4.03018618       0.00000000
