10
Lattice="16.28999089631971 0.0 0.0 0.0 16.28999089631971 0.0 0.0 0.0 34.474598006748145" Properties=species:S:1:pos:R:3:initial_magmoms:R:1 pbc="T T T"
Si       1.04078439       2.05332192       0.37932421       0.00000000
Si       0.21317094      -0.91339659       2.19168932       0.00000000
Si      -2.21471347       0.31874643      -0.83904324       0.00000000
Si       2.65810446      -1.35685926      -1.43679862       0.00000000
Si      -0.64477449      -3.08706740      -1.36529827       0.00000000
Si       2.63513556       0.90310131      -2.17910608       0.00000000
Si      -0.11264535       3.41536140      -1.06978185       0.00000000
Si      -1.96319587       2.33347734      -1.96546688       0.00000000
Si       1.31007438      -2.94695711       1.78219981       0.00000000
Si      -1.94003637      -1.66382802       2.72704565       0.00000000
