10
Lattice="16.28999089631971 0.0 0.0 0.0 16.28999089631971 0.0 0.0 0.0 34.474598006748145" Properties=species:S:1:pos:R:3:initial_magmoms:R:1 pbc="T T T"
Si       1.11485502       1.58636907      -1.25091149       0.00000000
Si      -1.71771534      -1.14209190      -1.26242601       0.00000000
Si       0.40926996       1.14683229       2.09398825       0.00000000
Si       1.54212543      -1.93155417       0.10528548       0.00000000
Si      -0.58512051      -0.65912598       3.18469619       0.00000000
Si       0.85507839      -2.39236569       2.33372474       0.00000000
Si       2.29692258       0.10528227      -2.66519819       0.00000000
Si      -0.42723783      -2.60380989      -2.66664612       0.00000000
Si       3.00913767       2.38669677       0.05398725       0.00000000
Si      -0.39889323       2.82458826      -2.64203124       0.00000000
