10
Lattice="16.28999089631971 0.0 0.0 0.0 16.28999089631971 0.0 0.0 0.0 34.474598006748145" Properties=species:S:1:pos:R:3:initial_magmoms:R:1 pbc="T T T"
Si       1.69927506      -0.27013707       1.52801846       0.00000000
Si       0.08400753       1.99202265      -1.30827725       0.00000000
Si       1.45502280      -1.56118473      -1.30472637       0.00000000
Si      -2.99086029      -0.85248828      -0.64022812       0.00000000
Si       0.37051605      -1.67949900       2.83821737       0.00000000
Si      -0.20574270      -3.30353055      -1.00638303       0.00000000
Si       0.98191233      -0.82774377      -3.51268770       0.00000000
Si      -2.13086232       2.21294763      -2.22771529       0.00000000
Si      -2.14071777       1.38720753       2.81371626       0.00000000
Si       1.43399241       1.47603690      -3.21872264       0.00000000
