10
Lattice="16.28999089631971 0.0 0.0 0.0 16.28999089631971 0.0 0.0 0.0 34.474598006748145" Properties=species:S:1:pos:R:3:initial_magmoms:R:1 pbc="T T T"
Si      -1.10926755       1.09193499      -1.77547726       0.00000000
Si      -0.45208008      -2.30378067      -0.29396506       0.00000000
Si      -1.34998488       0.51598575       1.91044539       0.00000000
Si       2.30336432       0.73265904       0.01103188       0.00000000
Si       0.02103039      -3.03722163       1.91399628       0.00000000
Si       3.09496058      -0.50850864      -1.84242697       0.00000000
Si      -0.03494205       3.23086086      -1.76123925       0.00000000
Si      -3.56485473       0.73691073       0.99100735       0.00000000
Si      -0.61108677      -0.07183890      -3.74939043       0.00000000
Si      -1.43399241      -1.47603690       3.21872264       0.00000000
