10
Lattice="16.28999089631971 0.0 0.0 0.0 16.28999089631971 0.0 0.0 0.0 34.474598006748145" Properties=species:S:1:pos:R:3:initial_magmoms:R:1 pbc="T T T"
Si      -0.38662101      -2.10092130      -0.99373084       0.00000000
Si      -0.84469581       1.23030225      -1.82453464       0.00000000
Si       2.35207726       0.31130190       0.40931713       0.00000000
Si      -1.36983654      -0.09754452       1.99594244       0.00000000
Si       3.23165581      -1.10190447      -1.23291574       0.00000000
Si       2.48275564      -0.70566651       2.55863714       0.00000000
Si       1.82926600      -3.00553758      -0.99514430       0.00000000
Si       0.37478729       0.28098621      -3.62948771       0.00000000
Si       0.24388248      -1.11118977       3.51792784       0.00000000
Si      -2.26075293      -2.92993569       0.19136860       0.00000000
