10
Lattice="16.28999089631971 0.0 0.0 0.0 16.28999089631971 0.0 0.0 0.0 34.474598006748145" Properties=species:S:1:pos:R:3:initial_magmoms:R:1 pbc="T T T"
Si      -1.35822937      -1.35571896       1.35630039       0.00000000
Si      -1.35718681       1.35749457      -1.35733463       0.00000000
Si       1.35723123      -1.35738054      -1.35785175       0.00000000
Si       1.35870384       1.36034532       1.35757595       0.00000000
Si      -2.71534927       0.00001629       2.71253184       0.00000000
Si      -2.71375285       2.71482624      -0.00082739       0.00000000
Si      -2.71388317       0.00138465      -2.71528981       0.00000000
Si       0.00036508       2.71533123      -2.71415214       0.00000000
Si      -2.71505605      -2.71463076       0.00024132       0.00000000
Si      -0.00028888      -2.71554300      -2.71460031       0.00000000
