10
Lattice="16.28999089631971 0.0 0.0 0.0 16.28999089631971 0.0 0.0 0.0 34.474598006748145" Properties=species:S:1:pos:R:3:initial_magmoms:R:1 pbc="T T T"
Si       0.73427175      -0.91204452      -2.02807278       0.00000000
Si       0.04359204      -1.72934640       1.58738375       0.00000000
Si      -2.15798517       0.96112629      -0.16406470       0.00000000
Si       1.44720360       1.81045431       0.61437215       0.00000000
Si      -1.20961395      -0.42757992       3.19721048       0.00000000
Si       2.40129261      -2.04226101       1.73807230       0.00000000
Si      -0.53877546      -2.95008642      -2.18193300       0.00000000
Si       0.89919171       3.45370806      -1.11018610       0.00000000
Si       0.20908215       0.59460129      -3.76318027       0.00000000
Si      -2.49976077       2.03781384      -2.18993111       0.00000000
