10
Lattice="16.28999089631971 0.0 0.0 0.0 16.28999089631971 0.0 0.0 0.0 34.474598006748145" Properties=species:S:1:pos:R:3:initial_magmoms:R:1 pbc="T T T"
Si      -1.51934875       1.30816845      -1.31320712       0.00000000
Si      -1.19194256      -0.76434309       2.06320242       0.00000000
Si       1.26788328      -1.57322304      -1.54618658       0.00000000
Si       1.98423603       1.57102389       0.30623803       0.00000000
Si       2.35442628       0.45880785       2.27691057       0.00000000
Si       0.43756569       0.12189807       3.53457909       0.00000000
Si       0.03455109       2.42826447      -2.68746879       0.00000000
Si      -2.55103958      -0.30739230      -2.74252475       0.00000000
Si      -1.38597926      -3.13748658       1.68012047       0.00000000
Si       3.15232677      -1.64605563       1.59417525       0.00000000
