10
Lattice="16.28999089631971 0.0 0.0 0.0 16.28999089631971 0.0 0.0 0.0 34.474598006748145" Properties=species:S:1:pos:R:3:initial_magmoms:R:1 pbc="T T T"
Si      -1.34957504      -1.35666850      -1.37005577       0.00000000
Si       1.38610958      -1.24102612       1.44255589       0.00000000
Si       1.36555160       1.34977963      -1.36760807       0.00000000
Si      -1.38417500       1.20038404       1.56304467       0.00000000
Si       2.24385953       0.73567921       2.67843644       0.00000000
Si      -0.16779026      -2.36112214       2.81681755       0.00000000
Si       0.39777899       2.33307661       2.89155852       0.00000000
Si      -2.71617572       2.70636196       0.03909422       0.00000000
Si       2.72346971      -2.70679594       0.00544699       0.00000000
Si      -2.70693929      -0.00583019      -2.72876938       0.00000000
