10
Lattice="16.28999089631971 0.0 0.0 0.0 16.28999089631971 0.0 0.0 0.0 34.474598006748145" Properties=species:S:1:pos:R:3:initial_magmoms:R:1 pbc="T T T"
Si       1.21781548      -1.44889776      -1.40559910       0.00000000
Si       1.03169082       1.61556075       1.42931763       0.00000000
Si      -1.51395792       1.24962219      -1.37977761       0.00000000
Si      -0.79996722      -1.88152758       1.31589614       0.00000000
Si       2.55103958       0.30739230       2.74252475       0.00000000
Si       2.58559067       2.73565677       0.05505596       0.00000000
Si       2.56210049      -0.10088397      -2.75893467       0.00000000
Si       2.59034735      -2.77079868      -0.04626494       0.00000000
Si      -2.69424987      -2.68185528       0.01099740       0.00000000
Si      -0.15009396       2.62001439      -2.75755569       0.00000000
