10
Lattice="16.28999089631971 0.0 0.0 0.0 16.28999089631971 0.0 0.0 0.0 34.474598006748145" Properties=species:S:1:pos:R:3:initial_magmoms:R:1 pbc="T T T"
Si       0.80508438      -2.09784249      -0.71314193       0.00000000
Si      -0.25324434       1.27745433      -2.03055496       0.00000000
Si      -2.24959117      -0.80181009       0.59023992       0.00000000
Si       1.70160453       1.41756462       1.11694313       0.00000000
Si      -3.17212631       1.36412038       0.94398397       0.00000000
Si      -1.54850622       2.70069371       2.06178896       0.00000000
Si      -0.82442387      -2.98408365      -2.18451860       0.00000000
Si       2.72194497      -1.76093271      -1.97081045       0.00000000
Si       0.60470109       3.45112514       1.52643263       0.00000000
Si       1.07900073      -3.59212419       1.13235328       0.00000000
