10
Lattice="16.28999089631971 0.0 0.0 0.0 16.28999089631971 0.0 0.0 0.0 34.385447050020396" Properties=species:S:1:pos:R:3:initial_magmoms:R:1 pbc="T T T"
Si       1.10859966      -1.41867230       1.54492181       0.00000000
Si      -1.05169869      -1.49947074      -1.61734589       0.00000000
Si       1.64869461       1.21653557      -1.39958273       0.00000000
Si      -1.59495390       1.29472757       1.52517767       0.00000000
Si       2.55489102      -2.80284993       0.25575222       0.00000000
Si       2.45573379      -0.05724795       2.91353901       0.00000000
Si       2.68203447       2.79707282       0.08618029       0.00000000
Si      -0.25690959       2.65634351       2.90930960       0.00000000
Si      -0.26282286      -2.77000929       2.90999731       0.00000000
Si      -3.24762327       2.42575856       0.22765930       0.00000000
