10
Lattice="16.28999089631971 0.0 0.0 0.0 16.28999089631971 0.0 0.0 0.0 34.385447050020396" Properties=species:S:1:pos:R:3:initial_magmoms:R:1 pbc="T T T"
Si      -1.35685926      -1.35769005      -1.35685050       0.00000000
Si       1.35785295       1.35783666      -1.35712558       0.00000000
Si      -1.35514881       1.35988920       1.35863854       0.00000000
Si       1.35861858      -1.36052451       1.36039220       0.00000000
Si       0.00537570       2.71888245       2.68629578       0.00000000
Si       0.01705563      -2.70865233       2.71724270       0.00000000
Si      -2.71460144       0.00013032      -2.71291013       0.00000000
Si       0.00058644       2.71375110      -2.71414801       0.00000000
Si       0.00030951      -2.71456560      -2.71431994       0.00000000
Si       2.71500543       0.00035838      -2.71445748       0.00000000
