10
Lattice="16.28999089631971 0.0 0.0 0.0 16.28999089631971 0.0 0.0 0.0 34.385447050020396" Properties=species:S:1:pos:R:3:initial_magmoms:R:1 pbc="T T T"
Si      -0.34852455      -2.24006138       0.48617611       0.00000000
Si       1.64763576       1.27716858       1.03283625       0.00000000
Si      -2.06140828       1.09230966       0.53087721       0.00000000
Si       0.80006706       0.36898479      -2.22883154       0.00000000
Si      -0.84875787       2.25855963      -2.42867987       0.00000000
Si       0.45726030       3.36667059       0.75249154       0.00000000
Si      -2.55059290      -2.49874658      -0.44677036       0.00000000
Si      -1.66922490       3.23117037      -0.36634276       0.00000000
Si       1.70033391       0.42078699       3.26104885       0.00000000
Si      -3.68491922      -0.42968948      -0.31046637       0.00000000
