10
Lattice="16.28999089631971 0.0 0.0 0.0 16.28999089631971 0.0 0.0 0.0 34.385447050020396" Properties=species:S:1:pos:R:3:initial_magmoms:R:1 pbc="T T T"
Si       1.43415531       1.32629922      -1.35616279       0.00000000
Si       0.71609211      -0.15781752       2.29904666       0.00000000
Si      -1.57172436      -1.40033727      -1.19162833       0.00000000
Si      -0.38432997       1.84984353       1.90584885       0.00000000
Si      -0.63633627      -2.00163375       2.11329637       0.00000000
Si      -2.67589314       2.06320995       1.57038424       0.00000000
Si      -0.12663846       2.55704130      -2.77707341       0.00000000
Si       2.59107111      -0.17404236      -2.78690766       0.00000000
Si       2.92369662       2.64117915       0.23571237       0.00000000
Si      -0.14072931      -2.87481033      -2.76503850       0.00000000
