10
Lattice="16.28999089631971 0.0 0.0 0.0 16.28999089631971 0.0 0.0 0.0 34.385447050020396" Properties=species:S:1:pos:R:3:initial_magmoms:R:1 pbc="T T T"
Si      -0.49780611      -1.48713039       1.77501215       0.00000000
Si      -1.25872830       1.88820648      -0.70548661       0.00000000
Si      -0.49353813      -1.51824429      -1.79340838       0.00000000
Si       2.20799547       0.90202617       0.32188235       0.00000000
Si       3.24177516      -0.78690474       1.57894623       0.00000000
Si      -1.24137945      -0.23824125      -3.60648524       0.00000000
Si      -0.96938532       3.40156377       1.44793760       0.00000000
Si       3.26873511       1.00543509      -1.78233626       0.00000000
Si      -2.79761202      -2.17126152       1.53462336       0.00000000
Si       0.88567101      -3.47578753       1.49648988       0.00000000
