10
Lattice="16.28999089631971 0.0 0.0 0.0 16.28999089631971 0.0 0.0 0.0 34.385447050020396" Properties=species:S:1:pos:R:3:initial_magmoms:R:1 pbc="T T T"
Si      -1.35801585       1.35658233       1.35633472       0.00000000
Si       1.35521397      -1.35826020       1.35856977       0.00000000
Si       1.35654975       1.35729909      -1.35853539       0.00000000
Si      -1.35786924      -1.35783666      -1.35826030       0.00000000
Si      -2.71034649       0.00320913       2.68516106       0.00000000
Si      -2.71495656       2.71337643      -0.00116911       0.00000000
Si       2.71353933       2.71544526      -0.00075648       0.00000000
Si       2.71450044      -0.00037467      -2.71531711       0.00000000
Si      -0.00006516       2.71423980      -2.71586728       0.00000000
Si       2.71480995      -2.71560816      -0.00072209       0.00000000
