10
Lattice="16.28999089631971 0.0 0.0 0.0 16.28999089631971 0.0 0.0 0.0 34.385447050020396" Properties=species:S:1:pos:R:3:initial_magmoms:R:1 pbc="T T T"
Si       0.04253319      -2.17653948      -0.90671036       0.00000000
Si       2.03312232       0.99064377       0.79561092       0.00000000
Si      -2.14200468       0.37154232       1.22594503       0.00000000
Si       2.37483765      -1.26293112       1.47369231       0.00000000
Si      -0.70349994      -1.18591200      -2.87459059       0.00000000
Si      -1.49305995       2.69558775       1.33209296       0.00000000
Si       0.75515553       2.62985760       1.98153126       0.00000000
Si       2.33409636      -2.38990590      -0.57124575       0.00000000
Si       2.02931046       1.45192770      -2.35371955       0.00000000
Si       0.68763348      -1.60148619       3.00914092       0.00000000
