10
Lattice="16.28999089631971 0.0 0.0 0.0 16.28999089631971 0.0 0.0 0.0 34.385447050020396" Properties=species:S:1:pos:R:3:initial_magmoms:R:1 pbc="T T T"
Si      -1.34791605      -1.35211887       1.39468139       0.00000000
Si       1.36368477       1.36199061       1.39574734       0.00000000
Si       1.48631589      -1.33449309      -1.35051326       0.00000000
Si      -1.35384561       1.33898913      -1.63242594       0.00000000
Si      -2.67514380       2.70644559       0.01699674       0.00000000
Si      -2.70135441      -2.73075786       0.01075234       0.00000000
Si       2.73510729       2.71332760       0.03067184       0.00000000
Si       2.73017142      -2.72210787       0.04452574       0.00000000
Si      -2.70475902       0.00210141       2.75507359       0.00000000
Si       0.00853596      -2.71616202       2.75579569       0.00000000
