10
Lattice="16.28999089631971 0.0 0.0 0.0 16.28999089631971 0.0 0.0 0.0 34.385447050020396" Properties=species:S:1:pos:R:3:initial_magmoms:R:1 pbc="T T T"
Si       1.24385553      -1.38761478       1.39503900       0.00000000
Si       1.85710887       0.88052337      -1.19228475       0.00000000
Si      -1.48631589       1.33449309       1.35051326       0.00000000
Si      -0.86439627      -1.90847124      -1.33720062       0.00000000
Si       0.59712624       2.11499586      -2.79985520       0.00000000
Si       2.54847276      -2.74263327      -0.04308155       0.00000000
Si       2.59703325      -0.02292003       2.75251875       0.00000000
Si       2.69508276       2.66364306       0.09201551       0.00000000
Si      -0.12263112       2.69648370       2.74626060       0.00000000
Si      -2.68723098      -2.76022647      -0.04896490       0.00000000
