10
Lattice="16.28999089631971 0.0 0.0 0.0 16.28999089631971 0.0 0.0 0.0 34.385447050020396" Properties=species:S:1:pos:R:3:initial_magmoms:R:1 pbc="T T T"
Si       0.74792277      -1.91770616       1.16243851       0.00000000
Si      -0.47274557      -0.53156551      -2.31477599       0.00000000
Si      -1.97702021       0.80682741       1.17562878       0.00000000
Si       1.80195093       1.93360671      -0.14114890       0.00000000
Si       2.08490823      -0.55973906       2.54768797       0.00000000
Si      -0.64858798       2.17466613       2.55147037       0.00000000
Si      -1.19996538       1.61899794      -2.98728694       0.00000000
Si       3.45462030       0.80257572       1.15636948       0.00000000
Si       0.71576631       3.52261476       1.19631851       0.00000000
Si       2.06922096      -3.28516262      -0.48698417       0.00000000
