10
Lattice="16.28999089631971 0.0 0.0 0.0 16.28999089631971 0.0 0.0 0.0 34.385447050020396" Properties=species:S:1:pos:R:3:initial_magmoms:R:1 pbc="T T T"
Si      -1.64926476      -1.54536551       0.87786095       0.00000000
Si      -0.54385794       2.38920543       0.29788129       0.00000000
Si       0.35104950      -0.18650421      -2.46815438       0.00000000
Si      -2.48577255       1.16048331       0.26291128       0.00000000
Si       1.54419426       0.82111374       2.44652592       0.00000000
Si      -0.04365720       2.63300157       2.58875044       0.00000000
Si       3.20267916       1.70070858       0.75063473       0.00000000
Si      -2.94734970       0.17554104       2.27308563       0.00000000
Si       2.73675258       0.22740840      -2.62735909       0.00000000
Si      -0.40250961      -2.78167130       2.59832576       0.00000000
