10
Lattice="16.28999089631971 0.0 0.0 0.0 16.28999089631971 0.0 0.0 0.0 34.385447050020396" Properties=species:S:1:pos:R:3:initial_magmoms:R:1 pbc="T T T"
Si      -2.24172784       0.63055332      -0.30355490       0.00000000
Si       0.72721981      -2.15056345       0.67251095       0.00000000
Si      -0.52559196       1.80543699       1.51525922       0.00000000
Si       1.32186345       0.87702102      -1.84254521       0.00000000
Si       0.96838674      -1.37689596      -2.81802650       0.00000000
Si      -2.08136908       0.63698787       2.84328060       0.00000000
Si       1.19996538      -1.61899794       2.98728694       0.00000000
Si       2.26832874      -2.53290766      -1.20170328       0.00000000
Si      -1.52395786       3.36846249       0.05260976       0.00000000
Si      -0.27345534       2.28452589      -2.92389935       0.00000000
