10
Lattice="16.28999089631971 0.0 0.0 0.0 16.28999089631971 0.0 0.0 0.0 34.385447050020396" Properties=species:S:1:pos:R:3:initial_magmoms:R:1 pbc="T T T"
Si      -1.98654921      -0.64049022      -0.96324007       0.00000000
Si       0.00632052       0.61483347       2.23096344       0.00000000
Si       0.76139460       1.96390611      -1.08063205       0.00000000
Si       1.75360221      -1.66500090      -0.20039850       0.00000000
Si      -2.32826454       1.61308467      -1.64132146       0.00000000
Si       2.35278099       1.11837366       2.30619884       0.00000000
Si       2.71523349       2.38286862       0.26260181       0.00000000
Si      -1.14548022      -1.05909435       3.39305465       0.00000000
Si       0.59300487      -3.70470438      -0.75727112       0.00000000
Si      -2.34795915      -2.38270572       1.87414545       0.00000000
