10
Lattice="16.28999089631971 0.0 0.0 0.0 16.28999089631971 0.0 0.0 0.0 34.385447050020396" Properties=species:S:1:pos:R:3:initial_magmoms:R:1 pbc="T T T"
Si      -1.13050971      -1.30976487       1.58162829       0.00000000
Si       1.23501006      -1.41169140      -1.45567433       0.00000000
Si       1.90708659       0.89049285       1.16405119       0.00000000
Si      -1.47751929       1.31465187      -1.42685931       0.00000000
Si      -0.85336794       1.67547537       2.79601980       0.00000000
Si       0.90075555      -2.15065467       2.54926970       0.00000000
Si      -2.62005102      -2.62464480      -0.01024687       0.00000000
Si       2.59227657      -2.78399358      -0.05436342       0.00000000
Si       2.59747308      -0.04509072      -2.81861106       0.00000000
Si       2.72704374       2.70653463      -0.08393492       0.00000000
