10
Lattice="16.28999089631971 0.0 0.0 0.0 16.28999089631971 0.0 0.0 0.0 34.385447050020396" Properties=species:S:1:pos:R:3:initial_magmoms:R:1 pbc="T T T"
Si      -0.00632052      -0.61483347      -2.23096344       0.00000000
Si      -1.15180074      -1.67392782       1.16209122       0.00000000
Si      -1.19557197       1.94054625       0.63021683       0.00000000
Si       2.34646047       0.50354019       0.07523540       0.00000000
Si       2.22399225       2.14019649       1.70039569       0.00000000
Si       0.60924600       3.43787418       0.66057919       0.00000000
Si      -1.56665817       1.28229993       2.96010725       0.00000000
Si      -2.87595063      -0.53592471       2.18344272       0.00000000
Si       0.75507408       1.34907264      -3.31159549       0.00000000
Si       1.74728169      -2.27983437      -2.43136193       0.00000000
