10
Lattice="16.28999089631971 0.0 0.0 0.0 16.28999089631971 0.0 0.0 0.0 34.385447050020396" Properties=species:S:1:pos:R:3:initial_magmoms:R:1 pbc="T T T"
Si       1.82184102      -0.81072072      -1.25885192       0.00000000
Si      -2.19724407      -0.05647743      -0.90041782       0.00000000
Si       1.01020806       2.15904402      -0.39347289       0.00000000
Si       0.33440112      -1.85484456       1.58664857       0.00000000
Si       2.10484719       1.31167080      -2.27569893       0.00000000
Si      -0.79702083       3.32649945      -1.34364648       0.00000000
Si      -2.25486180       1.69173279      -2.46478461       0.00000000
Si      -0.06900444      -0.63542403       3.69231137       0.00000000
Si       2.90256849       2.22830910       1.27164331       0.00000000
Si      -3.83750046       0.90891684       0.76600503       0.00000000
