10
Lattice="16.28999089631971 0.0 0.0 0.0 16.28999089631971 0.0 0.0 0.0 34.385447050020396" Properties=species:S:1:pos:R:3:initial_magmoms:R:1 pbc="T T T"
Si       1.32719517      -1.32804225      -1.45103229       0.00000000
Si       1.85365539       0.80282726       1.33257436       0.00000000
Si      -1.64507823      -1.28114334       1.24661069       0.00000000
Si      -1.38921120       1.41526610      -1.42036046       0.00000000
Si       2.62555704      -2.77540875       0.00839005       0.00000000
Si       2.71494027       2.70831743       0.04497619       0.00000000
Si      -0.02728575      -2.66260050      -2.82177452       0.00000000
Si       2.68982109       0.05136237      -2.81902368       0.00000000
Si      -2.73800691       0.05005102      -2.81396902       0.00000000
Si       3.63398949      -0.93934656       1.17722082       0.00000000
