10
Lattice="16.28999089631971 0.0 0.0 0.0 16.28999089631971 0.0 0.0 0.0 34.385447050020396" Properties=species:S:1:pos:R:3:initial_magmoms:R:1 pbc="T T T"
Si       1.47901797       1.38561111       1.19001222       0.00000000
Si      -0.60005844       0.34222032      -2.26297631       0.00000000
Si       1.15750224      -2.10584088      -0.11450360       0.00000000
Si      -1.91444967       0.74054340       1.31417814       0.00000000
Si      -1.82011428      -1.52176293       0.64830358       0.00000000
Si       1.52868618       0.20470014      -3.15283779       0.00000000
Si       3.46814100       0.71141688       0.13327807       0.00000000
Si       0.21936114       3.36954482       1.18877434       0.00000000
Si       3.14431209      -1.52891424       1.01976977       0.00000000
Si       2.67322158       1.79268520      -1.79622799       0.00000000
