10
Lattice="16.28999089631971 0.0 0.0 0.0 16.28999089631971 0.0 0.0 0.0 34.385447050020396" Properties=species:S:1:pos:R:3:initial_magmoms:R:1 pbc="T T T"
Si       1.08618462      -1.58900805      -1.33746741       0.00000000
Si      -1.18567254       1.45477845      -1.41109357       0.00000000
Si      -1.36435429      -1.34794863       1.35515186       0.00000000
Si       1.36212093       1.35879777       1.35271049       0.00000000
Si       1.98591390       0.37512612      -2.94418132       0.00000000
Si      -2.44132366      -0.09817983      -2.66834622       0.00000000
Si       0.52085646       2.39459742      -2.87836753       0.00000000
Si      -0.71576631      -3.52261476      -1.19631851       0.00000000
Si      -2.69278652      -2.71578735      -0.02068974       0.00000000
Si       0.00009774      -2.71415835       2.70474702       0.00000000
