10
Lattice="16.28999089631971 0.0 0.0 0.0 16.28999089631971 0.0 0.0 0.0 34.385447050020396" Properties=species:S:1:pos:R:3:initial_magmoms:R:1 pbc="T T T"
Si       1.35475785       1.35540945       1.35918871       0.00000000
Si      -1.36199061       1.35190710      -1.36066729       0.00000000
Si      -1.36076886      -1.36049356       1.35853539       0.00000000
Si       1.35711990      -1.36805538      -1.35956695       0.00000000
Si       2.71057670      -2.71611784       0.00051578       0.00000000
Si       2.71406061       2.71329498       0.00405749       0.00000000
Si      -0.00332316       2.71210581       2.71559220       0.00000000
Si       2.71212380      -0.00291591       2.71569535       0.00000000
Si      -2.71813311       2.71151937       0.00013754       0.00000000
Si      -0.00371412      -2.71736409       2.71555781       0.00000000
