10
Lattice="16.28999089631971 0.0 0.0 0.0 16.28999089631971 0.0 0.0 0.0 34.385447050020396" Properties=species:S:1:pos:R:3:initial_magmoms:R:1 pbc="T T T"
Si       0.82691298      -0.86971496       1.99782998       0.00000000
Si       1.85740209       0.81189360      -1.22704536       0.00000000
Si      -0.80689257      -1.89837356      -1.26779214       0.00000000
Si      -1.79307288       1.87183503       0.17395607       0.00000000
Si       0.56785311       2.14920486      -2.66624905       0.00000000
Si      -2.16052641      -0.57721497      -2.66796833       0.00000000
Si      -3.49099587       0.72242892      -1.16253823       0.00000000
Si      -0.80793513       3.47113836      -1.26311572       0.00000000
Si       2.45042392       0.65228418       2.83917356       0.00000000
Si      -2.57194665      -2.92523507      -0.03029360       0.00000000
