10
Lattice="16.28999089631971 0.0 0.0 0.0 16.28999089631971 0.0 0.0 0.0 34.385447050020396" Properties=species:S:1:pos:R:3:initial_magmoms:R:1 pbc="T T T"
Si       1.15263153      -1.43664998       1.43297992       0.00000000
Si       0.11499111      -0.17659500      -2.32786168       0.00000000
Si       0.68360985       2.12716938       0.82490734       0.00000000
Si      -2.41733826      -0.18147060       0.06608887       0.00000000
Si      -2.56759722       1.80721749      -1.24231251       0.00000000
Si      -0.18683001       1.68551490       2.95171720       0.00000000
Si      -0.72821187       2.02104003      -2.72587345       0.00000000
Si      -1.43736444      -1.89162968      -2.72030301       0.00000000
Si       1.33185411      -0.08683059       3.48568910       0.00000000
Si      -3.16302930      -2.01305534      -1.19241920       0.00000000
