10
Lattice="16.28999089631971 0.0 0.0 0.0 16.28999089631971 0.0 0.0 0.0 34.385447050020396" Properties=species:S:1:pos:R:3:initial_magmoms:R:1 pbc="T T T"
Si      -2.05125309       1.11601161      -0.56577846       0.00000000
Si       1.00755279       1.50439779       1.59266603       0.00000000
Si      -0.04241916      -2.33145738       0.63121400       0.00000000
Si       1.21551093       0.69313950      -2.02238120       0.00000000
Si      -1.58157981      -2.34908316       2.40199675       0.00000000
Si       0.67590468       3.63682395       0.51677917       0.00000000
Si      -1.48954131       3.45258405      -0.38852138       0.00000000
Si      -2.46223350       0.19183104      -2.92785368       0.00000000
Si       2.87982995      -1.12150134      -2.32641749       0.00000000
Si       1.91257632       3.06869391      -1.44951933       0.00000000
