10
Lattice="16.28999089631971 0.0 0.0 0.0 16.28999089631971 0.0 0.0 0.0 34.385447050020396" Properties=species:S:1:pos:R:3:initial_magmoms:R:1 pbc="T T T"
Si       0.18450054      -0.63920331       2.28322935       0.00000000
Si      -1.27607715       1.99607886      -0.31985361       0.00000000
Si      -0.28142604      -2.11250349      -1.09476447       0.00000000
Si       2.15277304       1.01476926      -0.33711511       0.00000000
Si       0.90227052       2.09870586       2.63939401       0.00000000
Si      -3.44398293       1.17411804      -0.28202959       0.00000000
Si       0.58901382      -1.67084901      -3.22157433       0.00000000
Si       2.42622838      -1.26975663       2.58678424       0.00000000
Si      -2.66712912      -2.52641610      -0.93555977       0.00000000
Si       3.74809184      -0.39273561       0.74423903       0.00000000
