10
Lattice="16.28999089631971 0.0 0.0 0.0 16.28999089631971 0.0 0.0 0.0 34.385447050020396" Properties=species:S:1:pos:R:3:initial_magmoms:R:1 pbc="T T T"
Si       0.95609268       1.51479081      -1.47434564       0.00000000
Si      -0.19777689       1.27246077       1.93854943       0.00000000
Si      -1.60515144      -1.05971337      -1.41372406       0.00000000
Si       1.61200206      -1.37758014       1.09854688       0.00000000
Si      -2.25087075       0.60036795       2.78319403       0.00000000
Si       2.34321780       0.25492221      -2.80887997       0.00000000
Si       2.32004528       2.84268645      -0.19647855       0.00000000
Si      -0.36484713      -2.45263869      -2.80007729       0.00000000
Si      -2.91327102      -1.56959037       1.77487461       0.00000000
Si      -2.42510859      -2.87575515      -0.16573795       0.00000000
