10
Lattice="16.28999089631971 0.0 0.0 0.0 16.28999089631971 0.0 0.0 0.0 34.385447050020396" Properties=species:S:1:pos:R:3:initial_magmoms:R:1 pbc="T T T"
Si       0.99745299      -1.18820889      -1.72797284       0.00000000
Si      -0.97176366      -1.46627919       1.51859973       0.00000000
Si      -1.89007983       1.08488142      -0.84945856       0.00000000
Si       1.72226025       1.25201682       1.07241392       0.00000000
Si      -0.51163632       1.95960555      -2.58461796       0.00000000
Si       0.00397476       2.47783932       2.31259453       0.00000000
Si      -2.05008021       2.73970107       0.81827094       0.00000000
Si      -1.30070763       0.62024175       3.41155404       0.00000000
Si       2.56310348      -0.42476175       2.68677718       0.00000000
Si       2.96430826      -2.13488595      -0.80929633       0.00000000
