10
Lattice="16.28999089631971 0.0 0.0 0.0 16.28999089631971 0.0 0.0 0.0 34.385447050020396" Properties=species:S:1:pos:R:3:initial_magmoms:R:1 pbc="T T T"
Si      -1.35345680       1.34806246      -1.36008273       0.00000000
Si       1.35937784       1.35606411       1.35812276       0.00000000
Si      -1.35671480      -1.35987540       1.35757259       0.00000000
Si       1.35649777      -1.35643821      -1.36441530       0.00000000
Si      -2.71057670       2.71611784      -0.00051578       0.00000000
Si       2.71468466       2.71354402      -0.00082525       0.00000000
Si       0.00154710       2.71320193       2.71517957       0.00000000
Si      -2.71259666      -2.71655547       0.00185682       0.00000000
Si      -2.71429082      -0.00124625       2.71504203       0.00000000
Si       0.00129300      -2.71652289       2.71535150       0.00000000
