10
Lattice="16.28999089631971 0.0 0.0 0.0 16.28999089631971 0.0 0.0 0.0 34.385447050020396" Properties=species:S:1:pos:R:3:initial_magmoms:R:1 pbc="T T T"
Si       1.32271542      -1.30417740       1.60808103       0.00000000
Si      -2.01989484      -0.68677011      -1.22923369       0.00000000
Si      -1.36713825       1.44612846       1.61854453       0.00000000
Si       1.51188534       0.82275903      -1.94520787       0.00000000
Si      -2.77842240      -2.61355131       0.10146807       0.00000000
Si      -2.72533329       2.85789709       0.23544760       0.00000000
Si       2.29641989      -3.23516142       0.16868822       0.00000000
Si      -0.03867246      -2.62383030       3.01497958       0.00000000
Si      -3.72394287       1.11399165      -0.97407114       0.00000000
Si      -1.57692087      -0.81332712      -3.59467869       0.00000000
