10
Lattice="16.28999089631971 0.0 0.0 0.0 16.28999089631971 0.0 0.0 0.0 34.385447050020396" Properties=species:S:1:pos:R:3:initial_magmoms:R:1 pbc="T T T"
Si      -0.53253639      -0.89702514       2.08764481       0.00000000
Si       1.97010350       1.01990061       0.77006252       0.00000000
Si       0.89453181      -1.27340559      -1.76156744       0.00000000
Si      -1.94124672       0.71283411      -1.14988438       0.00000000
Si       2.11772348       2.20936383      -1.22157807       0.00000000
Si      -2.20667598      -2.35978569       1.19486057       0.00000000
Si      -3.41637138      -0.77131521      -0.03627667       0.00000000
Si       1.16357582      -3.31229457      -0.68836265       0.00000000
Si       2.53632761       0.25528059      -2.56047936       0.00000000
Si      -1.22530122       1.05300189       3.28793828       0.00000000
