10
Lattice="16.28999089631971 0.0 0.0 0.0 16.28999089631971 0.0 0.0 0.0 34.385447050020396" Properties=species:S:1:pos:R:3:initial_magmoms:R:1 pbc="T T T"
Si      -0.98143992       2.10575943       0.00103156       0.00000000
Si       0.10754658      -0.23651451      -2.33243495       0.00000000
Si       1.94124672      -0.71283411       1.14988438       0.00000000
Si      -1.47512466      -1.48414932       1.11360771       0.00000000
Si       2.83577853      -1.98623970      -0.61168306       0.00000000
Si      -2.70710478       1.98433377       1.52891537       0.00000000
Si       1.71240480      -1.86970104      -2.69812438       0.00000000
Si      -2.66090634      -0.10544517       2.65111945       0.00000000
Si      -1.55774754       2.67801084      -2.16219250       0.00000000
Si       0.43137549       2.00381661      -3.21892665       0.00000000
