10
Lattice="16.28999089631971 0.0 0.0 0.0 16.28999089631971 0.0 0.0 0.0 34.385447050020396" Properties=species:S:1:pos:R:3:initial_magmoms:R:1 pbc="T T T"
Si      -1.72566486      -0.12142566       1.52788381       0.00000000
Si      -0.57630762       0.57225141      -2.16322407       0.00000000
Si       0.98143992      -2.10575943      -0.00103156       0.00000000
Si       1.55235555       1.71503468       0.39244133       0.00000000
Si      -0.97997382       1.71015908       2.78639187       0.00000000
Si       1.08898650      -2.34227394      -2.33346651       0.00000000
Si       1.41281541      -0.10194282      -3.21995822       0.00000000
Si       1.43736444       1.89162968       2.72030301       0.00000000
Si      -0.49368474      -3.58990875       1.11257615       0.00000000
Si      -1.83596445       2.55618512      -2.16446195       0.00000000
