10
Lattice="16.28999089631971 0.0 0.0 0.0 16.28999089631971 0.0 0.0 0.0 34.385447050020396" Properties=species:S:1:pos:R:3:initial_magmoms:R:1 pbc="T T T"
Si      -2.23681248      -0.51030054       0.29296417       0.00000000
Si       1.10943045      -0.21002697       2.06336867       0.00000000
Si       0.69276483      -1.95002703      -1.20029347       0.00000000
Si       0.89261055       2.22057135      -0.28350817       0.00000000
Si       3.07865103       1.43123940      -0.65167336       0.00000000
Si       1.22530122      -1.05300189      -3.28793828       0.00000000
Si       3.36687326       0.29719476       1.47228251       0.00000000
Si      -3.37685184      -0.44561295      -1.78670321       0.00000000
Si      -2.51981865      -2.63269206       1.30981118       0.00000000
Si       0.50816655       1.87737363       3.37121988       0.00000000
