10
Lattice="16.28999089631971 0.0 0.0 0.0 16.28999089631971 0.0 0.0 0.0 34.385447050020396" Properties=species:S:1:pos:R:3:initial_magmoms:R:1 pbc="T T T"
Si       1.19058723       1.44075276      -1.35324002       0.00000000
Si      -0.15859944       0.67416165       2.20665291       0.00000000
Si      -2.12648520      -0.13550022      -1.11883430       0.00000000
Si       1.19037546      -2.08950201       0.28034471       0.00000000
Si      -2.51866858      -2.27436093      -0.22161433       0.00000000
Si      -0.45726030      -3.36667059      -0.75249154       0.00000000
Si      -1.30601817      -1.10811096      -3.18117141       0.00000000
Si      -0.39351753      -1.46005641       3.41984093       0.00000000
Si       1.83568752       2.01580605       2.56261126       0.00000000
Si       1.14805404       3.61729224      -0.44652966       0.00000000
