10
Lattice="16.28999089631971 0.0 0.0 0.0 16.28999089631971 0.0 0.0 0.0 34.385447050020396" Properties=species:S:1:pos:R:3:initial_magmoms:R:1 pbc="T T T"
Si      -1.96685527       0.94667706      -0.91867650       0.00000000
Si       1.60154158       1.62347769      -0.70122281       0.00000000
Si      -0.50722173      -0.31270284       2.31063456       0.00000000
Si       0.18714278      -2.23093179      -0.83725172       0.00000000
Si      -3.07380964      -1.03026105      -1.42613721       0.00000000
Si       0.01549668      -1.69419258      -3.15572617       0.00000000
Si      -2.07098095      -2.99832111      -0.57382466       0.00000000
Si      -2.96430826       2.13488595       0.80929633       0.00000000
Si       3.33424372       0.43784262      -1.90718989       0.00000000
Si      -0.40120478       1.71012420       3.49607351       0.00000000
