10
Lattice="16.28999089631971 0.0 0.0 0.0 16.28999089631971 0.0 0.0 0.0 34.385447050020396" Properties=species:S:1:pos:R:3:initial_magmoms:R:1 pbc="T T T"
Si      -1.35034163       1.34886087      -1.35602525       0.00000000
Si      -1.35616205      -1.35752715       1.35729751       0.00000000
Si       1.35902583       1.35609363       1.35605963       0.00000000
Si       1.36168110      -1.35692442      -1.35513123       0.00000000
Si      -0.00043983      -2.71572219      -2.70784171       0.00000000
Si      -2.71154285      -2.71401174       0.00127226       0.00000000
Si      -2.71336428      -0.00029322       2.71256628       0.00000000
Si       2.71539639       2.71134018      -0.00292276       0.00000000
Si       0.00162900       2.71474479       2.71308206       0.00000000
Si      -2.71268315       2.71521720      -0.00244137       0.00000000
