10
Lattice="16.28999089631971 0.0 0.0 0.0 16.28999089631971 0.0 0.0 0.0 34.385447050020396" Properties=species:S:1:pos:R:3:initial_magmoms:R:1 pbc="T T T"
Si       0.34995807       2.23295175      -0.42717065       0.00000000
Si       0.00930159      -0.61204788       2.24289519       0.00000000
Si       1.68860511      -0.28375551      -1.69087092       0.00000000
Si      -2.07079946      -1.20777318      -0.48387228       0.00000000
Si      -0.06164136      -1.04839182      -3.09819928       0.00000000
Si      -1.04708862      -2.80663668      -1.89350447       0.00000000
Si      -0.63964314      -2.93609331       2.13674726       0.00000000
Si      -1.45056911       0.97200801       3.26906066       0.00000000
Si       2.25751707      -0.67777803       2.89233349       0.00000000
Si       1.50236154      -3.30763563       0.91080223       0.00000000
