10
Lattice="16.28999089631971 0.0 0.0 0.0 16.28999089631971 0.0 0.0 0.0 34.385447050020396" Properties=species:S:1:pos:R:3:initial_magmoms:R:1 pbc="T T T"
Si      -1.80555821      -0.97106319      -1.11274807       0.00000000
Si       0.98544726       1.75824486      -1.20469481       0.00000000
Si      -1.02371084       1.59886350       1.40963219       0.00000000
Si       1.84595022      -1.68691095      -0.07028389       0.00000000
Si      -0.33399876      -2.19411639      -2.49600661       0.00000000
Si      -1.69234271      -0.06359616       3.00890023       0.00000000
Si       2.42204607       0.52567830      -2.51034535       0.00000000
Si       1.04708862       2.80663668       1.89350447       0.00000000
Si       2.73569373       2.52288117       0.20263355       0.00000000
Si       2.54945016      -0.50099895       2.80430670       0.00000000
