10
Lattice="16.28999089631971 0.0 0.0 0.0 16.28999089631971 0.0 0.0 0.0 34.385447050020396" Properties=species:S:1:pos:R:3:initial_magmoms:R:1 pbc="T T T"
Si      -0.00930159       0.61204788      -2.24289519       0.00000000
Si       2.24821548      -0.06573015       0.64943830       0.00000000
Si      -1.45987070       1.58405589       1.02616547       0.00000000
Si      -0.64894473      -2.32404543      -0.10614793       0.00000000
Si       1.49305995      -2.69558775      -1.33209296       0.00000000
Si      -2.08010105      -0.59572530      -2.72676747       0.00000000
Si      -2.74873292      -2.25818496      -1.12749944       0.00000000
Si      -0.41350536       1.65731202       3.32555598       0.00000000
Si      -3.17867489       0.24516450       2.03802659       0.00000000
Si       0.34065648       2.84499963      -2.67006584       0.00000000
