10
Lattice="16.28999089631971 0.0 0.0 0.0 16.28999089631971 0.0 0.0 0.0 34.385447050020396" Properties=species:S:1:pos:R:3:initial_magmoms:R:1 pbc="T T T"
Si       1.35703845      -1.35877008      -1.36052974       0.00000000
Si      -1.35891994       1.35858600      -1.36169885       0.00000000
Si      -1.38889517      -1.34883969       1.35526877       0.00000000
Si       1.37450133       1.36386396       1.35585332       0.00000000
Si      -0.02529837       2.72966643       2.60586818       0.00000000
Si      -0.09954819      -2.69859472       2.72384471       0.00000000
Si      -2.71351394      -2.71278127      -0.00526098       0.00000000
Si       2.71606428       2.71199178      -0.00099718       0.00000000
Si      -2.71496033       2.71494027      -0.00783989       0.00000000
Si       0.00058644       2.71482624      -2.71823988       0.00000000
