10
Lattice="10.86 0.0 0.0 0.0 10.86 0.0 0.0 0.0 10.86" Properties=species:S:1:pos:R:3:initial_magmoms:R:1 pbc="T T T"
Si      -1.31984838      -1.28342394       1.34475036       0.00000000
Si       1.39515162      -1.28342394      -1.37024964       0.00000000
Si       1.39515162       1.43157606       1.34475036       0.00000000
Si      -2.67734838      -2.64092394      -0.01274964       0.00000000
Si       0.03765162      -2.64092394       2.70225036       0.00000000
Si       0.03765162      -2.64092394      -2.72774964       0.00000000
Si       2.75265162      -2.64092394      -0.01274964       0.00000000
Si      -2.86088238       0.36716574       2.49861450       0.00000000
Si      -2.60025324       0.06327036      -2.79961026       0.00000000
Si       2.75265162       0.07407606       2.70225036       0.00000000
