10
Lattice="10.86 0.0 0.0 0.0 10.86 0.0 0.0 0.0 10.86" Properties=species:S:1:pos:R:3:initial_magmoms:R:1 pbc="T T T"
Si      -1.26347412      -1.22694108       1.12098006       0.00000000
Si       1.45152588       1.48805892       1.12098006       0.00000000
Si      -1.26347412       1.48805892      -1.59401994       0.00000000
Si       1.68652542      -1.79047734      -1.07506398       0.00000000
Si       0.25425432      -2.66108010       2.31662262       0.00000000
Si      -2.62097412       0.13055892       2.47848006       0.00000000
Si      -2.62097412      -2.58444108      -0.23651994       0.00000000
Si       0.09402588       2.84555892       2.47848006       0.00000000
Si       2.73985854       0.01122924       2.63649306       0.00000000
Si       2.69333430      -0.21549498      -2.69979600       0.00000000
