10
Lattice="10.86 0.0 0.0 0.0 10.86 0.0 0.0 0.0 10.86" Properties=species:S:1:pos:R:3:initial_magmoms:R:1 pbc="T T T"
Si       1.39561860      -1.33765878      -1.17550812       0.00000000
Si      -1.50725940       1.29971394      -1.30136466       0.00000000
Si      -1.31938140      -1.33765878       1.53949188       0.00000000
Si       1.39561860       1.37734122       1.53949188       0.00000000
Si       0.03811860      -2.69515878      -2.53300812       0.00000000
Si      -2.67688140      -2.69515878       0.18199188       0.00000000
Si      -2.71360992       0.01871178      -2.68650336       0.00000000
Si       2.89985892       2.46834768       0.33495498       0.00000000
Si       2.75311860      -2.69515878       0.18199188       0.00000000
Si      -2.67688140       0.01984122       2.89699188       0.00000000
