10
Lattice="10.86 0.0 0.0 0.0 10.86 0.0 0.0 0.0 10.86" Properties=species:S:1:pos:R:3:initial_magmoms:R:1 pbc="T T T"
Si      -1.37874216       1.23634584      -1.30367784       0.00000000
Si       1.33625784       1.23634584       1.41132216       0.00000000
Si      -1.37874216      -1.47865416       1.41132216       0.00000000
Si      -0.02124216       2.59384584      -2.66117784       0.00000000
Si       2.69375784       2.59384584       0.05382216       0.00000000
Si      -2.73624216       2.59384584       0.05382216       0.00000000
Si      -0.02124216       2.59384584       2.76882216       0.00000000
Si       2.69375784      -0.12115416       2.76882216       0.00000000
Si      -2.73624216      -0.12115416       2.76882216       0.00000000
Si      -0.02124216      -2.83615416       2.76882216       0.00000000
