10
Lattice="10.86 0.0 0.0 0.0 10.86 0.0 0.0 0.0 10.86" Properties=species:S:1:pos:R:3:initial_magmoms:R:1 pbc="T T T"
Si       0.99425472       1.10383212       1.56772788       0.00000000
Si       0.99425472      -1.61116788      -1.14727212       0.00000000
Si      -1.72074528       1.10383212      -1.14727212       0.00000000
Si       2.35175472       2.46133212       0.21022788       0.00000000
Si       2.35175472      -0.25366788      -2.50477212       0.00000000
Si      -0.36324528       2.46133212      -2.50477212       0.00000000
Si       2.35175472      -0.25366788       2.92522788       0.00000000
Si       2.35175472      -2.96866788       0.21022788       0.00000000
Si      -0.36324528       2.46133212       2.92522788       0.00000000
Si      -3.07824528       2.46133212       0.21022788       0.00000000
