10
Lattice="16.28999089631971 0.0 0.0 0.0 16.28999089631971 0.0 0.0 0.0 34.279985188174585" Properties=species:S:1:pos:R:3:initial_magmoms:R:1 pbc="T T T"
Si       0.19808640       2.07488988       1.01256277       0.00000000
Si      -0.88391169       0.47359917      -2.11010567       0.00000000
Si       2.10259917      -0.96725133      -0.36336805       0.00000000
Si      -1.17359187      -1.39874085       1.50228691       0.00000000
Si       2.27955744      -2.22262389       1.66532261       0.00000000
Si      -0.09676260      -1.30657203      -3.39348047       0.00000000
Si      -1.88654653       3.05403684       0.66698604       0.00000000
Si       0.61398639       1.64010978       3.27411750       0.00000000
Si       1.96845102      -1.95447420      -2.46939439       0.00000000
Si      -0.18964818       2.61172750      -2.79933943       0.00000000
