10
Lattice="16.28999089631971 0.0 0.0 0.0 16.28999089631971 0.0 0.0 0.0 34.279985188174585" Properties=species:S:1:pos:R:3:initial_magmoms:R:1 pbc="T T T"
Si       0.78714909      -1.78017120      -1.28337480       0.00000000
Si       0.88391169      -0.47359917       2.11010567       0.00000000
Si       0.69426351       2.13812833      -0.68923377       0.00000000
Si      -2.35901096       0.10889865      -0.26443595       0.00000000
Si      -1.05493226       3.30586232       0.46713362       0.00000000
Si       0.89554275       1.51938459      -3.02750714       0.00000000
Si       1.08199809       1.60129071       3.12266844       0.00000000
Si       1.29135717      -0.81811638      -3.36660495       0.00000000
Si       2.98651086      -1.44085050       1.74673762       0.00000000
Si      -0.97768670      -3.30978591      -1.48586679       0.00000000
