10
Lattice="16.28999089631971 0.0 0.0 0.0 16.28999089631971 0.0 0.0 0.0 34.279985188174585" Properties=species:S:1:pos:R:3:initial_magmoms:R:1 pbc="T T T"
Si      -1.34444628      -1.36053265       1.35875310       0.00000000
Si       1.30000716      -1.39819676      -1.36494065       0.00000000
Si       1.37130849       1.35417141       1.35573646       0.00000000
Si      -1.43384580       1.22530122      -1.45406180       0.00000000
Si       2.16042867       0.45520776      -2.55098629       0.00000000
Si       0.38107197       2.06861823      -2.75280574       0.00000000
Si      -2.19636441      -0.75351024      -2.75568526       0.00000000
Si      -0.32534388      -2.40959236      -2.83586619       0.00000000
Si      -2.70140328      -0.00592956       2.71301896       0.00000000
Si       0.01352070       2.70943425       2.71404736       0.00000000
