10
Lattice="16.28999089631971 0.0 0.0 0.0 16.28999089631971 0.0 0.0 0.0 34.279985188174585" Properties=species:S:1:pos:R:3:initial_magmoms:R:1 pbc="T T T"
Si      -1.35441576       1.35780408      -1.35834517       0.00000000
Si      -1.35609363      -1.35798327       1.35711109       0.00000000
Si       1.35925389       1.35702216       1.35659689       0.00000000
Si       1.35853713      -1.35597145      -1.36215025       0.00000000
Si      -2.71220355       2.71306692      -0.00003428       0.00000000
Si      -2.71334385      -0.00063531       2.71384510       0.00000000
Si      -2.71399545      -2.71447483       0.00034280       0.00000000
Si       0.00185706       2.71471221       2.71387938       0.00000000
Si       0.00187335      -2.71559175       2.71411934       0.00000000
Si       2.71538010       2.71503801      -0.00065132       0.00000000
