10
Lattice="16.28999089631971 0.0 0.0 0.0 16.28999089631971 0.0 0.0 0.0 34.279985188174585" Properties=species:S:1:pos:R:3:initial_magmoms:R:1 pbc="T T T"
Si      -1.35617508       1.35757485      -1.35567133       0.00000000
Si       1.35790182       1.35649156       1.35676829       0.00000000
Si      -1.35643572      -1.35848848       1.35656261       0.00000000
Si       1.35912357      -1.36122520      -1.36122469       0.00000000
Si      -2.70886410      -0.01618599      -2.70076728       0.00000000
Si      -2.71313208       2.71217794      -0.00140548       0.00000000
Si      -2.71423980      -0.00109248       2.71305666       0.00000000
Si       0.00065160       2.71383952       2.71350230       0.00000000
Si       2.71399545       2.71447483      -0.00034280       0.00000000
Si       2.71586880      -0.00111692       2.71377654       0.00000000
