10
Lattice="16.28999089631971 0.0 0.0 0.0 16.28999089631971 0.0 0.0 0.0 34.279985188174585" Properties=species:S:1:pos:R:3:initial_magmoms:R:1 pbc="T T T"
Si       0.80718579       2.13069942      -0.33642396       0.00000000
Si       1.24493067      -1.17470448      -1.62915721       0.00000000
Si       0.96614361      -0.81081846       2.01782390       0.00000000
Si      -2.31762717      -0.05548374      -0.68035525       0.00000000
Si       0.60621606      -3.22421617      -0.68145221       0.00000000
Si      -1.59065334       0.18995769      -3.10175763       0.00000000
Si       0.49049190      -3.10843988       1.76524882       0.00000000
Si       1.66869873       2.15720325      -2.45880187       0.00000000
Si      -0.55614060      -1.89461497      -3.17542536       0.00000000
Si       2.80852632       2.45656458       0.85926259       0.00000000
