10
Lattice="16.28999089631971 0.0 0.0 0.0 16.28999089631971 0.0 0.0 0.0 34.279985188174585" Properties=species:S:1:pos:R:3:initial_magmoms:R:1 pbc="T T T"
Si       1.84241529      -1.38710164      -0.26471019       0.00000000
Si      -1.83104487      -1.19505232      -0.84620191       0.00000000
Si       0.34086825       1.79460903      -1.57605748       0.00000000
Si       0.25876665      -0.04228395       2.40940439       0.00000000
Si      -3.58024063      -0.02731833       0.31016548       0.00000000
Si       2.10178467       1.73914158       2.42808699       0.00000000
Si      -1.44331029      -1.73188994       2.96570030       0.00000000
Si       3.84290874      -0.16305150       0.06499489       0.00000000
Si       1.90492002      -2.53076783      -2.31883661       0.00000000
Si       2.30547483       2.99428608      -1.15396779       0.00000000
