10
Lattice="16.28999089631971 0.0 0.0 0.0 16.28999089631971 0.0 0.0 0.0 34.279985188174585" Properties=species:S:1:pos:R:3:initial_magmoms:R:1 pbc="T T T"
Si      -1.84241529       1.38710164       0.26471019       0.00000000
Si       0.06250473      -1.14366618      -2.05412642       0.00000000
Si       0.24070104      -1.68835491       1.62922577       0.00000000
Si       2.00049345       1.22405015       0.32970508       0.00000000
Si      -1.58364864       1.34481769       2.67411458       0.00000000
Si       3.54797829      -0.48579453       0.20951939       0.00000000
Si       2.43755415      -2.42875170       1.07666638       0.00000000
Si       1.95843267      -0.34390863      -3.10607691       0.00000000
Si      -0.09422136      -0.53402922       3.67896435       0.00000000
Si      -3.67346016       0.19204933      -0.58149171       0.00000000
