10
Lattice="16.28999089631971 0.0 0.0 0.0 16.28999089631971 0.0 0.0 0.0 34.279985188174585" Properties=species:S:1:pos:R:3:initial_magmoms:R:1 pbc="T T T"
Si      -1.35697329      -1.35738054      -1.35745389       0.00000000
Si       1.35788553       1.35749457      -1.35779669       0.00000000
Si      -1.35685926       1.35725022       1.35961353       0.00000000
Si       1.35755973      -1.35804843       1.35992205       0.00000000
Si      -2.71362567      -2.71494027      -0.00041136       0.00000000
Si       2.71474479       2.71474479      -0.00082272       0.00000000
Si      -2.71471710       0.00017919      -2.71559338       0.00000000
Si       0.00030951      -2.71521720      -2.71525058       0.00000000
Si      -2.71501032       2.71549413      -0.00003428       0.00000000
Si       2.71533123       0.00027693      -2.71521630       0.00000000
