10
Lattice="16.28999089631971 0.0 0.0 0.0 16.28999089631971 0.0 0.0 0.0 34.279985188174585" Properties=species:S:1:pos:R:3:initial_magmoms:R:1 pbc="T T T"
Si      -0.19202652      -2.11481667       0.86221067       0.00000000
Si      -1.94914737       0.99937521       0.77044310       0.00000000
Si      -1.10273526      -0.22835322      -2.08991474       0.00000000
Si       1.73923443       0.95707008       1.35467721       0.00000000
Si      -3.23597592       0.30364560      -0.96090280       0.00000000
Si       1.71750357       2.26766574      -1.88581160       0.00000000
Si      -1.45446894       3.22133121       0.77181430       0.00000000
Si       0.29651058       1.07315262      -3.47379852       0.00000000
Si      -2.37291543      -2.33253252       1.60008776       0.00000000
Si       3.42086742       1.29316536      -0.50789254       0.00000000
