10
Lattice="16.28999089631971 0.0 0.0 0.0 16.28999089631971 0.0 0.0 0.0 34.279985188174585" Properties=species:S:1:pos:R:3:initial_magmoms:R:1 pbc="T T T"
Si      -1.89583020      -0.49607937      -1.25218000       0.00000000
Si       1.36454814      -1.71173691      -0.79978678       0.00000000
Si       0.92284479       2.05091100      -0.66037000       0.00000000
Si       0.30947742      -0.22213044       2.36833694       0.00000000
Si      -2.63549394       1.75668102      -1.16785119       0.00000000
Si       3.35243313      -0.59598594      -0.21846647       0.00000000
Si      -2.80490994      -1.95408324       0.34314284       0.00000000
Si      -0.75065949       2.85882984      -2.11984119       0.00000000
Si       3.01667994       1.41784902      -1.47510287       0.00000000
Si       1.94773014       1.47064491       2.76111723       0.00000000
