10
Lattice="16.28999089631971 0.0 0.0 0.0 16.28999089631971 0.0 0.0 0.0 34.279985188174585" Properties=species:S:1:pos:R:3:initial_magmoms:R:1 pbc="T T T"
Si       1.35685926       1.35725022       1.35697397       0.00000000
Si       1.35744570      -1.35721764      -1.35741961       0.00000000
Si      -1.35764118       1.35764118      -1.35765957       0.00000000
Si      -1.35788553      -1.35749457       1.35779669       0.00000000
Si       2.71221984       0.00188964       2.71603902       0.00000000
Si       2.71492398      -2.71472850      -0.00010284       0.00000000
Si      -0.00057015       2.71459818      -2.71507918       0.00000000
Si      -2.71485882      -2.71487511       0.00034280       0.00000000
Si      -2.71497285       2.71490769       0.00020568       0.00000000
Si       2.71495656       2.71511946      -0.00030852       0.00000000
