10
Lattice="16.28999089631971 0.0 0.0 0.0 16.28999089631971 0.0 0.0 0.0 34.279985188174585" Properties=species:S:1:pos:R:3:initial_magmoms:R:1 pbc="T T T"
Si       0.24081507       2.29895883      -0.29449952       0.00000000
Si       1.67350428      -0.80791884       1.45947119       0.00000000
Si      -0.49731741      -0.60592284      -2.23334228       0.00000000
Si      -1.88483445      -1.10214882       0.95199000       0.00000000
Si       0.75065949      -2.85882984       2.11984119       0.00000000
Si      -1.14517071      -3.35490921       0.86766119       0.00000000
Si      -1.82439855       2.94686100      -1.21858559       0.00000000
Si       0.37496322       3.28618170       1.81152683       0.00000000
Si      -3.90077245      -0.51598575      -0.11984290       0.00000000
Si      -0.09451458      -2.87021655      -2.69461402       0.00000000
