10
Lattice="16.28999089631971 0.0 0.0 0.0 16.28999089631971 0.0 0.0 0.0 34.279985188174585" Properties=species:S:1:pos:R:3:initial_magmoms:R:1 pbc="T T T"
Si      -0.40290057       1.81278378      -1.44658190       0.00000000
Si      -1.63825272      -1.69277535      -0.39278029       0.00000000
Si       1.80265140      -1.40300883      -0.75258322       0.00000000
Si       0.55289889       1.15795836       2.12988523       0.00000000
Si       1.89517860       2.49673572      -1.49573943       0.00000000
Si      -1.02488535       0.58026609      -3.42148723       0.00000000
Si      -1.94773014      -1.47064491      -2.76111723       0.00000000
Si       1.56151053      -3.29764986       0.62824964       0.00000000
Si       1.40470299      -2.06663085      -2.97958370       0.00000000
Si      -0.55372968      -3.86752293      -0.23882879       0.00000000
