10
Lattice="16.28999089631971 0.0 0.0 0.0 16.28999089631971 0.0 0.0 0.0 34.279985188174585" Properties=species:S:1:pos:R:3:initial_magmoms:R:1 pbc="T T T"
Si       1.34861652       1.35739683       1.37071683       0.00000000
Si      -1.36793646      -1.35625653       1.37051115       0.00000000
Si      -1.33520985       1.39782861      -1.38400376       0.00000000
Si       1.40256900      -1.32937803      -1.41917161       0.00000000
Si       2.69615790      -2.70065394       0.01720513       0.00000000
Si      -2.71937115       2.70243604       0.03117424       0.00000000
Si       2.72179836       2.70710162      -0.01397596       0.00000000
Si       2.70474273       0.00141723       2.73132448       0.00000000
Si      -2.71080261      -2.72810259      -0.01373943       0.00000000
Si      -0.01014867      -2.71285515       2.73050176       0.00000000
