10
Lattice="16.28999089631971 0.0 0.0 0.0 16.28999089631971 0.0 0.0 0.0 34.279985188174585" Properties=species:S:1:pos:R:3:initial_magmoms:R:1 pbc="T T T"
Si      -1.92588525      -0.80980848       1.15530471       0.00000000
Si      -0.17736552       2.06368303      -1.24720940       0.00000000
Si      -0.12070890      -0.78416802      -2.30125097       0.00000000
Si       1.75545927       0.39223062       1.67183581       0.00000000
Si       0.31791564       3.48274403       0.61803420       0.00000000
Si      -0.92958885      -1.83151728       2.96614594       0.00000000
Si      -2.50168788       1.21551649       2.30361629       0.00000000
Si       3.57671385      -0.58499019       0.70421413       0.00000000
Si       2.04393888       2.26131331      -2.21524244       0.00000000
Si       0.90741816      -0.51352596       3.62271086       0.00000000
