10
Lattice="16.28999089631971 0.0 0.0 0.0 16.28999089631971 0.0 0.0 0.0 34.279985188174585" Properties=species:S:1:pos:R:3:initial_magmoms:R:1 pbc="T T T"
Si      -1.82465497       0.48254238       1.37613649       0.00000000
Si      -0.06556399      -2.35801497      -0.39185473       0.00000000
Si       0.12906893       1.14225480      -2.11394503       0.00000000
Si       1.54666545       1.08616833       1.53920648       0.00000000
Si       2.45574519       2.54417220      -0.05611637       0.00000000
Si       2.47428321       1.42811172      -2.19436592       0.00000000
Si      -0.01326658      -3.08343962       1.91810336       0.00000000
Si       0.47482744      -1.35514881       3.49453792       0.00000000
Si      -2.49596587       2.68600923       0.98544728       0.00000000
Si       2.60471724      -0.60686766       2.85182212       0.00000000
