10
Lattice="16.28999089631971 0.0 0.0 0.0 16.28999089631971 0.0 0.0 0.0 34.279985188174585" Properties=species:S:1:pos:R:3:initial_magmoms:R:1 pbc="T T T"
Si      -1.35853713       1.35597145       1.36215025       0.00000000
Si       1.35811359      -1.35968227       1.36050481       0.00000000
Si      -1.34022717      -1.37002378      -1.38342442       0.00000000
Si       1.36640520       1.34005613      -1.39342390       0.00000000
Si      -2.71295289       2.71377553       0.00380508       0.00000000
Si       2.71580364       2.71250491       0.00013712       0.00000000
Si       2.71419093      -2.71609590       0.00366796       0.00000000
Si       0.00071676       2.71299361       2.71874714       0.00000000
Si      -2.71340901      -2.71972857       0.00126836       0.00000000
Si      -2.71463076      -0.00201182       2.71926134       0.00000000
