10
Lattice="16.28999089631971 0.0 0.0 0.0 16.28999089631971 0.0 0.0 0.0 34.279985188174585" Properties=species:S:1:pos:R:3:initial_magmoms:R:1 pbc="T T T"
Si       1.35612621       1.35687066      -1.35601413       0.00000000
Si      -1.35679410       1.35382443       1.36050481       0.00000000
Si      -1.35910728      -1.35862335      -1.35597985       0.00000000
Si       1.35527913      -1.36011330       1.36060765       0.00000000
Si       0.00555489      -2.71048888       2.70959438       0.00000000
Si       2.71349046      -0.00116799      -2.71387938       0.00000000
Si      -0.00172674       2.71399056      -2.71350230       0.00000000
Si       2.71430496       2.71426749       0.00071988       0.00000000
Si       2.71249677      -2.71617409      -0.00082272       0.00000000
Si      -0.00167787      -2.71643473      -2.71357086       0.00000000
