10
Lattice="16.28999089631971 0.0 0.0 0.0 16.28999089631971 0.0 0.0 0.0 34.279985188174585" Properties=species:S:1:pos:R:3:initial_magmoms:R:1 pbc="T T T"
Si      -0.45080946       2.23567218      -0.41160001       0.00000000
Si       0.05211171      -0.93797331      -2.17067844       0.00000000
Si      -1.95318729      -0.33107796       1.30541685       0.00000000
Si       1.67311332      -0.77198310       1.57773720       0.00000000
Si      -1.56747267      -2.61868985       1.62679189       0.00000000
Si      -1.91448225      -0.13823694      -3.13816300       0.00000000
Si      -1.30790781       0.60619977       3.40530707       0.00000000
Si       1.03448016       3.50682975       0.81925782       0.00000000
Si       0.52624845      -2.59715447       2.65580906       0.00000000
Si      -0.47693862      -3.22875035      -2.08436138       0.00000000
