10
Lattice="16.28999089631971 0.0 0.0 0.0 16.28999089631971 0.0 0.0 0.0 34.279985188174585" Properties=species:S:1:pos:R:3:initial_magmoms:R:1 pbc="T T T"
Si       0.85476888       1.41851691       1.69014133       0.00000000
Si       1.99163169      -0.84412499      -1.01941877       0.00000000
Si      -1.14686487      -1.82517137       1.07807186       0.00000000
Si      -1.67311332       0.77198310      -1.57773720       0.00000000
Si      -3.62630061       0.44090514      -0.27232035       0.00000000
Si      -1.04366772       2.62099584       2.42438475       0.00000000
Si      -3.24058599      -1.84670675       0.04905469       0.00000000
Si      -2.98102113       1.37818287       1.82756987       0.00000000
Si       1.74011409      -0.01653435       3.37428367       0.00000000
Si       1.74579930      -3.25426049      -0.90355235       0.00000000
