10
Lattice="16.28999089631971 0.0 0.0 0.0 16.28999089631971 0.0 0.0 0.0 34.279985188174585" Properties=species:S:1:pos:R:3:initial_magmoms:R:1 pbc="T T T"
Si       0.92551635       1.61538156       1.42253911       0.00000000
Si      -1.76031369      -1.14572457       1.17104728       0.00000000
Si      -0.92883951       1.75948290      -1.45060659       0.00000000
Si       1.89734517      -1.79031987      -0.06566013       0.00000000
Si       2.33842950       0.33260922       2.71440164       0.00000000
Si      -0.38752281      -2.39042718       2.68401584       0.00000000
Si       2.32673328       2.91022479       0.02732168       0.00000000
Si      -1.48173840       0.60152454      -3.58049182       0.00000000
Si       0.57394557       3.68970129      -1.33929941       0.00000000
Si      -2.77650018       2.84552091      -0.16544922       0.00000000
