10
Lattice="16.28999089631971 0.0 0.0 0.0 16.28999089631971 0.0 0.0 0.0 34.279985188174585" Properties=species:S:1:pos:R:3:initial_magmoms:R:1 pbc="T T T"
Si      -1.70336385       0.97450038      -1.37791905       0.00000000
Si       0.83023614      -1.97123661      -1.18320863       0.00000000
Si       1.63362636       1.83221775      -0.07171377       0.00000000
Si      -1.68163299      -0.33609528       1.86256976       0.00000000
Si       2.10880566      -0.45856350      -2.75199875       0.00000000
Si      -1.77815124       1.95478371       2.38503130       0.00000000
Si      -3.42086742      -1.29316536       0.50789254       0.00000000
Si       1.82526192      -1.61507205       2.89491209       0.00000000
Si      -0.49762692       2.45967597      -2.85552436       0.00000000
Si       2.84625396       1.63642824       1.98570353       0.00000000
