10
Lattice="16.28999089631971 0.0 0.0 0.0 16.28999089631971 0.0 0.0 0.0 34.279985188174585" Properties=species:S:1:pos:R:3:initial_magmoms:R:1 pbc="T T T"
Si      -0.09651825       2.29087899       0.52246155       0.00000000
Si      -0.46758816      -0.69797763       2.23409644       0.00000000
Si      -1.73923443      -0.95707008      -1.35467721       0.00000000
Si       1.68163299       0.33609528      -1.86256976       0.00000000
Si      -0.02173086       1.31059566      -3.24048881       0.00000000
Si      -2.20327137       2.33258139       1.52282063       0.00000000
Si       1.01770146       0.57317994       3.46495428       0.00000000
Si      -1.93126095      -3.07188675      -0.49246654       0.00000000
Si       1.34174214       2.57904909       2.33285714       0.00000000
Si      -3.68838180       0.04230513      -0.58423411       0.00000000
