10
Lattice="16.28999089631971 0.0 0.0 0.0 16.28999089631971 0.0 0.0 0.0 34.279985188174585" Properties=species:S:1:pos:R:3:initial_magmoms:R:1 pbc="T T T"
Si      -1.74638574       0.22784823      -1.57979400       0.00000000
Si       1.09752246       2.05618896       0.43888690       0.00000000
Si       1.67855418      -1.40776551      -0.98774405       0.00000000
Si      -1.24792803      -0.64640349       1.95605133       0.00000000
Si      -2.15840871      -2.54539395       0.86886099       0.00000000
Si       1.82247633      -2.99583526       0.73503185       0.00000000
Si       3.49669737       0.03401352      -0.82943899       0.00000000
Si      -0.73287081       3.52282653       0.28603236       0.00000000
Si      -3.15294579      -1.59431859      -0.98613289       0.00000000
Si       2.82538647       2.23748037      -1.22012819       0.00000000
