10
Lattice="16.28999089631971 0.0 0.0 0.0 16.28999089631971 0.0 0.0 0.0 34.279985188174585" Properties=species:S:1:pos:R:3:initial_magmoms:R:1 pbc="T T T"
Si       1.11724965      -1.21138956      -1.65282485       0.00000000
Si      -1.75278771       0.77947650      -1.36662109       0.00000000
Si       1.32493086       1.44464607       1.31106002       0.00000000
Si      -1.40121693      -1.29484323       1.39521743       0.00000000
Si       0.01169622      -2.57761557       2.68707996       0.00000000
Si      -2.32673328      -2.91022479      -0.02732168       0.00000000
Si       2.62262484      -2.64073932      -0.43262809       0.00000000
Si      -3.25557279      -1.15074189      -1.47792826       0.00000000
Si       2.73113253       0.11885184       2.64631418       0.00000000
Si      -2.72414412       0.14509503       2.67589782       0.00000000
