10
Lattice="16.28999089631971 0.0 0.0 0.0 16.28999089631971 0.0 0.0 0.0 34.279985188174585" Properties=species:S:1:pos:R:3:initial_magmoms:R:1 pbc="T T T"
Si      -1.09907001      -0.20880522      -2.03400406       0.00000000
Si       2.15725212       0.85913460      -0.47625210       0.00000000
Si      -0.91694781       1.86180039       1.14752315       0.00000000
Si       0.06121782      -2.00798685       1.29410444       0.00000000
Si      -0.21944259       1.05562458       3.23006769       0.00000000
Si       1.85038110       2.02419540      -2.50909064       0.00000000
Si      -3.23563383       0.76312134      -1.71866230       0.00000000
Si      -0.51710976      -1.27400832       3.49902860       0.00000000
Si      -0.87350238      -2.42471763      -2.78449619       0.00000000
Si       0.19347633       3.80475756       0.28037616       0.00000000
