10
Lattice="16.28999089631971 0.0 0.0 0.0 16.28999089631971 0.0 0.0 0.0 34.279985188174585" Properties=species:S:1:pos:R:3:initial_magmoms:R:1 pbc="T T T"
Si       0.29766717       2.32963290      -0.26896091       0.00000000
Si       0.57832758      -0.73397853      -2.20492416       0.00000000
Si      -2.29807917      -0.68395194       0.04915753       0.00000000
Si       1.92437028      -1.03542498       1.23627408       0.00000000
Si       3.40094475       0.37827009       0.09601829       0.00000000
Si      -1.89517860      -2.49673572       1.49573943       0.00000000
Si       2.61711882       2.53881279      -0.08412313       0.00000000
Si       2.04128361      -3.03627681       0.03016640       0.00000000
Si       0.51710976       1.27400832      -3.49902860       0.00000000
Si       0.16050537       0.59144103       3.73693183       0.00000000
