10
Lattice="16.28999089631971 0.0 0.0 0.0 16.28999089631971 0.0 0.0 0.0 34.279985188174585" Properties=species:S:1:pos:R:3:initial_magmoms:R:1 pbc="T T T"
Si       1.75278771      -0.77947650       1.36662109       0.00000000
Si      -0.94796397       1.95745527       1.12325290       0.00000000
Si      -1.50278508      -1.93021839      -0.11130717       0.00000000
Si       1.76386491      -1.62686601      -2.50065776       0.00000000
Si       0.35157078      -2.07431973       2.76183852       0.00000000
Si       2.87003736      -1.99086606      -0.28620376       0.00000000
Si      -2.26494531       0.73689444       2.60614217       0.00000000
Si      -3.35044575      -0.84418038       1.17385019       0.00000000
Si      -0.13983336       3.09371535      -2.13255907       0.00000000
Si      -0.16050537      -0.59144103      -3.73693183       0.00000000
