10
Lattice="16.28999089631971 0.0 0.0 0.0 16.28999089631971 0.0 0.0 0.0 34.279985188174585" Properties=species:S:1:pos:R:3:initial_magmoms:R:1 pbc="T T T"
Si       1.35775426      -1.35565663      -1.35800237       0.00000000
Si      -1.35788063      -1.35694354       1.35669973       0.00000000
Si       1.35691533       1.35839814       1.35680257       0.00000000
Si      -1.35763628       1.35706398      -1.36081333       0.00000000
Si       2.71992081      -0.01447815      -2.70025308       0.00000000
Si       2.71351884      -2.71354216       0.00003428       0.00000000
Si       2.71454511       0.00061535       2.71357086       0.00000000
Si      -0.00010864      -2.71437295       2.71405078       0.00000000
Si      -2.71451183      -2.71427521      -0.00092556       0.00000000
Si       2.71565283       2.71388578      -0.00089128       0.00000000
