10
Lattice="16.28999089631971 0.0 0.0 0.0 16.28999089631971 0.0 0.0 0.0 34.279985188174585" Properties=species:S:1:pos:R:3:initial_magmoms:R:1 pbc="T T T"
Si       1.35704334       1.35708732      -1.35697397       0.00000000
Si      -1.35695930      -1.35798327      -1.35680257       0.00000000
Si      -1.35736267       1.35738054       1.35820805       0.00000000
Si       1.35774381      -1.35755973       1.35813949       0.00000000
Si      -2.71464935       2.71469592      -0.00013712       0.00000000
Si      -2.71505660       0.00027693       2.71435930       0.00000000
Si       2.71496145       2.71495656       0.00013712       0.00000000
Si      -2.71490999      -2.71507059       0.00010284       0.00000000
Si       0.00109143      -2.71511946       2.71518202       0.00000000
Si       2.71471710      -0.00017919       2.71559338       0.00000000
