10
Lattice="16.28999089631971 0.0 0.0 0.0 16.28999089631971 0.0 0.0 0.0 34.279985188174585" Properties=species:S:1:pos:R:3:initial_magmoms:R:1 pbc="T T T"
Si      -1.37510406       1.32651099      -1.38391806       0.00000000
Si       1.34421822      -1.41025788      -1.35066645       0.00000000
Si      -1.75715343      -0.92323575       1.34734129       0.00000000
Si       1.61911197       1.23632955       1.34178793       0.00000000
Si       0.13695003       2.46417201       2.62200897       0.00000000
Si      -0.68763348      -1.12225068       3.48634500       0.00000000
Si      -2.85680988       2.54381382      -0.02756112       0.00000000
Si      -0.02537982       2.67688657      -2.73290479       0.00000000
Si      -2.72935692      -2.68496667       0.02800676       0.00000000
Si       2.68719840      -0.03526785      -2.73276767       0.00000000
