10
Lattice="16.28999089631971 0.0 0.0 0.0 16.28999089631971 0.0 0.0 0.0 34.279985188174585" Properties=species:S:1:pos:R:3:initial_magmoms:R:1 pbc="T T T"
Si      -1.35658233      -1.35532800      -1.37699349       0.00000000
Si       1.35848826       1.35871632      -1.37606793       0.00000000
Si       1.38958587      -1.30882005       1.44545066       0.00000000
Si      -1.41219639       1.28697516       1.44860442       0.00000000
Si       2.70487305      -2.70452607      -0.01330064       0.00000000
Si      -2.70630983      -2.71303108       0.00644464       0.00000000
Si      -2.71023735       2.70979263       0.00630752       0.00000000
Si       2.71425609       2.73067641      -0.01539172       0.00000000
Si      -2.71269714       0.00182448      -2.73640135       0.00000000
Si       0.00045612      -2.71415183      -2.73640135       0.00000000
