10
Lattice="16.28999089631971 0.0 0.0 0.0 16.28999089631971 0.0 0.0 0.0 34.279985188174585" Properties=species:S:1:pos:R:3:initial_magmoms:R:1 pbc="T T T"
Si      -1.15272927       1.94398344       0.50288766       0.00000000
Si      -1.63670517      -1.14391638      -1.20514783       0.00000000
Si       1.73993490       0.51489432      -1.47873655       0.00000000
Si       0.30687102      -1.16506080       2.03283854       0.00000000
Si      -1.65690477       1.78056216       2.78946679       0.00000000
Si      -1.85038110      -2.02419540       2.50909064       0.00000000
Si      -2.94945111      -2.23300062       0.47508658       0.00000000
Si       3.46680522      -1.08211212      -1.10426178       0.00000000
Si      -3.00395745       0.40663098      -2.28640773       0.00000000
Si      -3.24645039       1.92244806      -0.52612951       0.00000000
