10
Lattice="16.28999089631971 0.0 0.0 0.0 16.28999089631971 0.0 0.0 0.0 34.279985188174585" Properties=species:S:1:pos:R:3:initial_magmoms:R:1 pbc="T T T"
Si      -0.27699516       1.35552348       1.87333368       0.00000000
Si       2.31945165       0.20917989       0.18483778       0.00000000
Si      -0.69750522       0.80617581      -2.08254454       0.00000000
Si      -0.29766717      -2.32963290       0.26896091       0.00000000
Si       2.01947130       1.77903090       1.94854401       0.00000000
Si       0.21944259      -1.05562458      -3.23006769       0.00000000
Si      -2.89435833       1.54657260      -1.52998515       0.00000000
Si       0.28066041      -3.06361143      -1.93596325       0.00000000
Si       3.10327758      -1.95136281       0.36497921       0.00000000
Si       3.25239624       0.95276952      -1.81632603       0.00000000
