10
Lattice="16.28999089631971 0.0 0.0 0.0 16.28999089631971 0.0 0.0 0.0 34.279985188174585" Properties=species:S:1:pos:R:3:initial_magmoms:R:1 pbc="T T T"
Si       0.27699516      -1.35552348      -1.87333368       0.00000000
Si      -1.06225461       2.06968427      -0.14387318       0.00000000
Si       2.29646646       0.42350742       0.07521033       0.00000000
Si      -1.89162738       0.17431929       1.50859443       0.00000000
Si       2.59644681      -1.14634359      -1.68849589       0.00000000
Si      -2.95228557       1.34537481      -1.35358025       0.00000000
Si      -0.80813061      -1.13626008       3.25581197       0.00000000
Si       2.44802862       2.19325206      -1.44493646       0.00000000
Si       0.59507370       3.50033723      -0.99137773       0.00000000
Si       0.13983336      -3.09371535       2.13255907       0.00000000
