10
Lattice="16.28999089631971 0.0 0.0 0.0 16.28999089631971 0.0 0.0 0.0 34.279985188174585" Properties=species:S:1:pos:R:3:initial_magmoms:R:1 pbc="T T T"
Si       1.35619137       1.35647133       1.35731677       0.00000000
Si      -1.35840681      -1.35764371       1.35505429       0.00000000
Si       1.35744570      -1.35762742      -1.35769385       0.00000000
Si      -1.35741312       1.35736239      -1.35800237       0.00000000
Si       0.00053757       2.71450510      -2.71439358       0.00000000
Si       2.71481397       2.71486348       0.00023996       0.00000000
Si       2.71532633      -0.00068388      -2.71439358       0.00000000
Si      -2.71503801      -2.71512199      -0.00027424       0.00000000
Si      -2.71477737       2.71540105      -0.00013712       0.00000000
Si       2.71521769      -2.71505683      -0.00034280       0.00000000
