10
Lattice="16.28999089631971 0.0 0.0 0.0 16.28999089631971 0.0 0.0 0.0 34.279985188174585" Properties=species:S:1:pos:R:3:initial_magmoms:R:1 pbc="T T T"
Si      -1.35032697      -1.33908687      -1.40362906       0.00000000
Si       1.36205010       1.37710773      -1.40078382       0.00000000
Si      -1.48388868       1.21946940       1.52940239       0.00000000
Si       1.37000303      -1.53147177       1.63035701       0.00000000
Si      -2.70472644      -2.69181499      -0.00524484       0.00000000
Si       2.72866038      -2.69809315      -0.02121932       0.00000000
Si      -2.71373481       2.73157236      -0.01306068       0.00000000
Si       2.72473286       2.72473056      -0.02135644       0.00000000
Si       0.00493587      -2.69927092      -2.76389391       0.00000000
Si      -2.70785412       0.01705563      -2.76461379       0.00000000
