10
Lattice="16.28999089631971 0.0 0.0 0.0 16.28999089631971 0.0 0.0 0.0 34.279985188174585" Properties=species:S:1:pos:R:3:initial_magmoms:R:1 pbc="T T T"
Si       1.93433976      -1.01252450      -0.95846892       0.00000000
Si      -0.19999233       2.39150232       0.10462257       0.00000000
Si      -0.05892093      -0.87927881       2.27629513       0.00000000
Si      -1.66623894      -0.03740184      -1.86558640       0.00000000
Si      -3.67155423      -0.20114403      -0.45270174       0.00000000
Si       1.62886968      -3.38516693      -0.67576173       0.00000000
Si      -2.05055262      -0.03515382       3.29571390       0.00000000
Si       1.79095518       3.45370806      -0.47333830       0.00000000
Si      -0.51232050      -3.96323387       0.14239914       0.00000000
Si       3.97340860      -0.66726446       0.22799631       0.00000000
