10
Lattice="16.28999089631971 0.0 0.0 0.0 16.28999089631971 0.0 0.0 0.0 34.279985188174585" Properties=species:S:1:pos:R:3:initial_magmoms:R:1 pbc="T T T"
Si      -2.11035321       0.84274686       0.73527181       0.00000000
Si       1.23215835       1.21262760       1.73796194       0.00000000
Si       0.73224432       0.83295657      -2.22583496       0.00000000
Si      -0.59784300      -2.42150687      -0.05032305       0.00000000
Si      -3.03640713       1.50615711      -1.38261542       0.00000000
Si       0.18257832       3.42182853       1.59737964       0.00000000
Si      -0.84955608      -3.13742468       2.26179469       0.00000000
Si       1.10308942       0.07037280       3.85190697       0.00000000
Si      -1.92511962       2.67309126       2.39336134       0.00000000
Si       0.98893888      -3.74951068      -1.24772360       0.00000000
