10
Lattice="16.28999089631971 0.0 0.0 0.0 16.28999089631971 0.0 0.0 0.0 34.279985188174585" Properties=species:S:1:pos:R:3:initial_magmoms:R:1 pbc="T T T"
Si      -1.99163169       0.84412499       1.01941877       0.00000000
Si      -0.24583239      -2.41013549       0.11586641       0.00000000
Si       0.05892093       0.87927881      -2.27629513       0.00000000
Si       2.04131619       0.56724549       1.23905076       0.00000000
Si       3.62809807      -0.76075831       0.04165021       0.00000000
Si      -1.13686281       2.26264190       2.70956010       0.00000000
Si      -0.45339957      -3.08395505      -2.13389599       0.00000000
Si       1.99326069      -0.13324568      -3.23476405       0.00000000
Si      -1.98576729      -2.92502981       1.59460296       0.00000000
Si      -3.13849656      -0.98104637       2.09749063       0.00000000
