10
Lattice="16.28999089631971 0.0 0.0 0.0 16.28999089631971 0.0 0.0 0.0 34.279985188174585" Properties=species:S:1:pos:R:3:initial_magmoms:R:1 pbc="T T T"
Si       0.64962891      -2.00235051       1.04941377       0.00000000
Si      -1.36805049      -1.38895056      -1.35803665       0.00000000
Si       1.40072823       1.40238981      -1.39831566       0.00000000
Si      -1.18363140       1.59110946       1.47222335       0.00000000
Si       1.93645746      -1.30662090       2.78075967       0.00000000
Si       0.49914189       2.28815856       2.88548509       0.00000000
Si       2.78286957      -2.53434933      -0.07959817       0.00000000
Si       2.43113589       0.91533510       2.78213087       0.00000000
Si      -2.41225578       0.24661431       2.96971106       0.00000000
Si      -2.66609145       0.03386691      -2.80033355       0.00000000
