10
Lattice="16.28999089631971 0.0 0.0 0.0 16.28999089631971 0.0 0.0 0.0 34.279985188174585" Properties=species:S:1:pos:R:3:initial_magmoms:R:1 pbc="T T T"
Si       1.36805049       1.38895056       1.35803665       0.00000000
Si       1.41219639      -1.28697516      -1.44860442       0.00000000
Si      -1.29804096       1.42281747      -1.44229690       0.00000000
Si      -1.39270866      -1.31028615       1.67272709       0.00000000
Si       2.01767940      -0.61339995       2.40745043       0.00000000
Si      -2.56916595       2.74356180       0.13101818       0.00000000
Si       2.80178226      -2.59579521      -0.00315376       0.00000000
Si       0.05561406      -2.64230316      -2.82559792       0.00000000
Si      -2.66072371       0.07519464      -2.82172428       0.00000000
Si      -2.65277079      -2.83338486       0.20941655       0.00000000
