10
Lattice="16.28999089631971 0.0 0.0 0.0 16.28999089631971 0.0 0.0 0.0 34.279985188174585" Properties=species:S:1:pos:R:3:initial_magmoms:R:1 pbc="T T T"
Si      -1.83039327       1.46663757      -0.15285454       0.00000000
Si      -1.09752246      -2.05618896      -0.43888690       0.00000000
Si       1.72786401       0.18129141      -1.65901509       0.00000000
Si       1.12954860       0.62739306       2.24180944       0.00000000
Si       2.39917491      -2.02217544      -1.26832588       0.00000000
Si       2.03033673       2.62775619       1.39358502       0.00000000
Si      -1.42990362       2.34453825      -2.35177970       0.00000000
Si       3.07680633       1.95478371      -0.57820083       0.00000000
Si       0.58103172      -3.46395447      -1.42663094       0.00000000
Si       2.83968909      -2.42147592       1.06545682       0.00000000
