10
Lattice="16.28999089631971 0.0 0.0 0.0 16.28999089631971 0.0 0.0 0.0 34.279985188174585" Properties=species:S:1:pos:R:3:initial_magmoms:R:1 pbc="T T T"
Si      -1.39885488       1.31299029       1.33002989       0.00000000
Si       1.14822339       1.43047377      -1.52501455       0.00000000
Si       1.64515872      -0.78626943       1.56162560       0.00000000
Si      -1.42923573      -1.37904624      -1.45086690       0.00000000
Si      -2.72891709      -0.65801826       1.85561092       0.00000000
Si       3.01688261       1.25206569       1.19911455       0.00000000
Si       2.49014709      -2.60188767       0.04243865       0.00000000
Si      -2.64855852       2.65797414      -0.27622828       0.00000000
Si       2.21872636       3.11811777      -0.14253626       0.00000000
Si      -2.91413439      -2.55749742       0.06886853       0.00000000
