10
Lattice="16.28999089631971 0.0 0.0 0.0 16.28999089631971 0.0 0.0 0.0 34.279985188174585" Properties=species:S:1:pos:R:3:initial_magmoms:R:1 pbc="T T T"
Si       1.98230471      -0.01083285       1.20775311       0.00000000
Si       0.05584212      -2.31357096      -0.37327497       0.00000000
Si      -1.77018543       0.38833731       1.51257091       0.00000000
Si       0.62204898       0.67460148      -2.59962413       0.00000000
Si       2.19415616       2.31529770       1.13919310       0.00000000
Si      -3.49358598       0.97081884       0.06146405       0.00000000
Si      -1.84555926      -1.66223160       2.65587762       0.00000000
Si       0.15605920       3.50780715       1.35008369       0.00000000
Si      -1.39460319       2.40176502       2.73088227       0.00000000
Si       1.78553780      -0.84877416       3.38515043       0.00000000
