10
Lattice="16.28999089631971 0.0 0.0 0.0 16.28999089631971 0.0 0.0 0.0 34.279985188174585" Properties=species:S:1:pos:R:3:initial_magmoms:R:1 pbc="T T T"
Si       0.96943419       2.03432778      -0.96611336       0.00000000
Si      -1.45588617       0.98479566       1.72308442       0.00000000
Si      -0.41096412      -1.44560718      -1.96657529       0.00000000
Si       1.64600401      -1.60440210       1.34895245       0.00000000
Si       3.18941000       1.18102500      -0.64761784       0.00000000
Si       0.09379782       2.09404692       3.20804077       0.00000000
Si       0.88571988      -0.68002605      -3.82633409       0.00000000
Si       0.09754452      -3.75108201      -1.65634125       0.00000000
Si      -2.56624515      -0.61931322       3.18166573       0.00000000
Si       2.99072575      -0.12978243      -2.94098441       0.00000000
