10
Lattice="16.28999089631971 0.0 0.0 0.0 16.28999089631971 0.0 0.0 0.0 34.279985188174585" Properties=species:S:1:pos:R:3:initial_magmoms:R:1 pbc="T T T"
Si       1.46415823       1.76818176       0.43988102       0.00000000
Si      -0.37528317      -0.85354713       2.18202512       0.00000000
Si      -2.16693882       0.95472432      -0.28939180       0.00000000
Si       1.11382712      -1.29248118      -1.74464654       0.00000000
Si      -0.26553744       0.30338496      -3.31854438       0.00000000
Si       1.66092514       2.60612307      -1.73751630       0.00000000
Si       0.24537138       1.17809280       3.39293199       0.00000000
Si      -3.23665425      -0.57467862      -1.68277113       0.00000000
Si       0.55690949       3.11132484       2.09169731       0.00000000
Si       0.17438282      -3.44241909      -1.64118949       0.00000000
