10
Lattice="16.28999089631971 0.0 0.0 0.0 16.28999089631971 0.0 0.0 0.0 34.279985188174585" Properties=species:S:1:pos:R:3:initial_magmoms:R:1 pbc="T T T"
Si       0.90907974       1.45800387      -1.59532284       0.00000000
Si       1.05805179      -1.69303599       1.31261565       0.00000000
Si      -1.54666545      -1.08616833      -1.53920648       0.00000000
Si      -0.54408600       1.55724255       1.84453847       0.00000000
Si      -1.07183802      -2.44131714       1.95533145       0.00000000
Si      -3.37132043      -0.60362595      -0.16306998       0.00000000
Si       2.80490994       1.95408324      -0.34314284       0.00000000
Si      -2.93080625      -1.00292643       2.17071272       0.00000000
Si      -0.33510159       3.71226294       0.78525206       0.00000000
Si       0.92761776       0.34194339      -3.73357239       0.00000000
