10
Lattice="16.28999089631971 0.0 0.0 0.0 16.28999089631971 0.0 0.0 0.0 34.279985188174585" Properties=species:S:1:pos:R:3:initial_magmoms:R:1 pbc="T T T"
Si      -1.35863487      -1.35176049      -1.36283585       0.00000000
Si       1.35733167       1.36650294      -1.36461841       0.00000000
Si      -1.43643591       1.25258697       1.40568586       0.00000000
Si       1.35387819      -1.34745993       1.42186602       0.00000000
Si       2.71155195      -2.69509905      -0.00185112       0.00000000
Si       2.70068652       2.72157030       0.00147404       0.00000000
Si      -2.71294149      -2.71598283       0.01984812       0.00000000
Si      -0.00177561      -2.70901071      -2.72244939       0.00000000
Si       2.71296918       0.00573408      -2.72327211       0.00000000
Si      -2.71678593       0.00648342      -2.72248367       0.00000000
