10
Lattice="16.28999089631971 0.0 0.0 0.0 16.28999089631971 0.0 0.0 0.0 34.279985188174585" Properties=species:S:1:pos:R:3:initial_magmoms:R:1 pbc="T T T"
Si       1.23445310       1.02780126       1.80174473       0.00000000
Si       2.00674246      -0.97454925      -1.18684231       0.00000000
Si      -1.43084569      -1.59847254       1.48698230       0.00000000
Si      -1.64600401       1.60440210      -1.34895245       0.00000000
Si       2.62569730       2.25746820       0.37776565       0.00000000
Si       1.54340599       2.78542710      -1.99657029       0.00000000
Si      -2.05696813       0.15879492      -3.31552774       0.00000000
Si       3.80010856       0.52909920      -0.73424341       0.00000000
Si      -0.10959778       2.38277088       3.19238166       0.00000000
Si      -1.54845949      -2.14667991      -3.00529370       0.00000000
