10
Lattice="16.28999089631971 0.0 0.0 0.0 16.28999089631971 0.0 0.0 0.0 34.279985188174585" Properties=species:S:1:pos:R:3:initial_magmoms:R:1 pbc="T T T"
Si      -1.35244326      -1.35275418       1.35936672       0.00000000
Si       1.36056895       1.36467846       1.36138924       0.00000000
Si       1.34405089      -1.35496962      -1.39063694       0.00000000
Si      -1.44260841       1.31567814      -1.33329335       0.00000000
Si       0.20535545       2.51439408      -2.44600343       0.00000000
Si      -2.69644971      -2.72347623      -0.02441422       0.00000000
Si       0.00149254      -2.70883152       2.71843177       0.00000000
Si       2.72273549       2.70585694       0.01913853       0.00000000
Si      -2.71169715       0.00605988       2.71846605       0.00000000
Si       2.71633352       0.00679293       2.71942589       0.00000000
