10
Lattice="16.28999089631971 0.0 0.0 0.0 16.28999089631971 0.0 0.0 0.0 34.279985188174585" Properties=species:S:1:pos:R:3:initial_magmoms:R:1 pbc="T T T"
Si       1.35466011      -1.35539316      -1.36115613       0.00000000
Si       1.37222073       1.34803008       1.35762529       0.00000000
Si      -1.36056686       1.36109466      -1.36112185       0.00000000
Si      -1.36307390      -1.35560493       1.37586225       0.00000000
Si       0.03767877       2.66033619       2.74030927       0.00000000
Si       2.71352304      -2.70915732      -0.00229676       0.00000000
Si      -2.72055231      -2.70920619      -0.00095984       0.00000000
Si      -2.71601966       2.71383255      -0.00250244       0.00000000
Si       2.71218726       0.00281817      -2.71778730       0.00000000
Si      -0.00267156      -2.71226871      -2.71771874       0.00000000
