10
Lattice="16.28999089631971 0.0 0.0 0.0 16.28999089631971 0.0 0.0 0.0 34.279985188174585" Properties=species:S:1:pos:R:3:initial_magmoms:R:1 pbc="T T T"
Si       1.15649226       0.31022676       2.06382766       0.00000000
Si      -0.79815624       1.86605208      -1.34165081       0.00000000
Si      -1.37172388      -2.03833512       0.36251105       0.00000000
Si       1.78171875      -0.99507465      -1.44853586       0.00000000
Si       2.71942002      -0.95153148       0.68529157       0.00000000
Si      -1.86865921       0.17840808      -2.72412911       0.00000000
Si      -3.01688261      -1.25206569      -1.19911455       0.00000000
Si       0.87892695       2.65176765       2.16550215       0.00000000
Si       0.75818547      -2.69289990      -2.78082823       0.00000000
Si       0.87610878       2.79050958      -2.80852648       0.00000000
