10
Lattice="16.28999089631971 0.0 0.0 0.0 16.28999089631971 0.0 0.0 0.0 34.279985188174585" Properties=species:S:1:pos:R:3:initial_magmoms:R:1 pbc="T T T"
Si       0.95317677       0.67074075       2.01703546       0.00000000
Si      -0.21185145      -2.32613055       0.06856001       0.00000000
Si       0.95610897       0.70786566      -2.03750062       0.00000000
Si      -2.03809696       1.19250945       0.21089059       0.00000000
Si       2.99330379      -0.41296779       1.51651311       0.00000000
Si      -2.19415616      -2.31529770      -1.13919310       0.00000000
Si       0.67854366       3.04940655      -1.93582613       0.00000000
Si      -1.44169921       3.33285094       1.14299818       0.00000000
Si       0.55736235       3.00824172       2.35613326       0.00000000
Si      -0.40861836      -3.16407186       2.24595732       0.00000000
