10
Lattice="16.28999089631971 0.0 0.0 0.0 16.28999089631971 0.0 0.0 0.0 34.279985188174585" Properties=species:S:1:pos:R:3:initial_magmoms:R:1 pbc="T T T"
Si      -0.95317677      -0.67074075      -2.01703546       0.00000000
Si      -0.50420808      -0.96205482       2.08323014       0.00000000
Si       2.04012702      -1.08370854      -0.50052234       0.00000000
Si      -0.39581442       2.33750097       0.33909780       0.00000000
Si       1.75246191       2.74928841      -0.47988578       0.00000000
Si      -2.99127373       0.52176870      -1.80614487       0.00000000
Si       3.19523463      -0.76323537       1.46934383       0.00000000
Si      -2.39487598       2.66211019      -0.87403727       0.00000000
Si      -1.29135717       0.81811638       3.36660495       0.00000000
Si       3.13887123       1.62052920       1.20473647       0.00000000
