10
Lattice="10.86 0.0 0.0 0.0 10.86 0.0 0.0 0.0 10.86" Properties=species:S:1:pos:R:3:initial_magmoms:R:1 pbc="T T T"
Si       1.39653084       1.37106414       1.07237070       0.00000000
Si      -1.52983734      -1.59211944       0.93176628       0.00000000
Si      -1.52983734       1.12288056      -1.78323372       0.00000000
Si       1.18516266      -1.59211944      -1.78323372       0.00000000
Si      -0.33902748       2.53646160       2.06725530       0.00000000
Si      -2.88733734      -0.23461944       2.28926628       0.00000000
Si       2.49940728      -2.75245614      -0.39459810       0.00000000
Si      -0.00647256      -2.84651460       2.43816774       0.00000000
Si      -2.88733734       2.48038056      -0.42573372       0.00000000
Si       2.93201538       2.58343110      -0.36908796       0.00000000
