10
Lattice="10.86 0.0 0.0 0.0 10.86 0.0 0.0 0.0 10.86" Properties=species:S:1:pos:R:3:initial_magmoms:R:1 pbc="T T T"
Si      -1.39653084      -1.37106414      -1.07237070       0.00000000
Si      -1.73555832       1.16539746       0.99488460       0.00000000
Si       1.53548454       1.21236696      -1.44145866       0.00000000
Si       2.50363182       2.46681642      -0.14060442       0.00000000
Si      -0.21136818       2.46681642       2.57439558       0.00000000
Si      -0.21136818       2.46681642      -2.85560442       0.00000000
Si       2.50363182      -0.24818358      -2.85560442       0.00000000
Si      -2.92636818       2.46681642      -0.14060442       0.00000000
Si      -2.92636818      -0.24818358       2.57439558       0.00000000
Si       3.74956704       0.82222146       1.39224114       0.00000000
