10
Lattice="10.86 0.0 0.0 0.0 10.86 0.0 0.0 0.0 10.86" Properties=species:S:1:pos:R:3:initial_magmoms:R:1 pbc="T T T"
Si      -1.18927860      -0.94054116      -1.73809956       0.00000000
Si      -1.01809242       1.75543212       1.12206606       0.00000000
Si       1.41117012       1.45592418      -1.59337920       0.00000000
Si       0.76135116      -1.64057676       2.06048952       0.00000000
Si      -2.60453208      -2.22543120      -0.33728988       0.00000000
Si      -2.60453208       0.48956880       2.37771012       0.00000000
Si       0.11046792      -2.22543120      -3.05228988       0.00000000
Si      -1.11787410      -1.01354208       3.68514552       0.00000000
Si       0.11046792       3.20456880       2.37771012       0.00000000
Si      -1.02975606      -3.69897030       1.20297306       0.00000000
