10
Lattice="16.2900001489832 0.0 0.0 0.0 16.2900001489832 0.0 0.0 0.0 29.33687292656838" Properties=species:S:1:pos:R:3:initial_magmoms:R:1 pbc="T T T"
Si      -0.84890449      -1.24618990      -1.81747795       0.00000000
Si       0.93238585      -1.57396099       1.50506548       0.00000000
Si       1.98592532       0.96861481      -0.96814614       0.00000000
Si      -1.75809827       1.50659207       0.99064752       0.00000000
Si       1.79341499       0.14718015       2.87144032       0.00000000
Si      -1.39466836       3.12410763      -0.77252787       0.00000000
Si       0.96905953       3.20951610      -1.04715034       0.00000000
Si       2.85956292       1.79951885       1.62495179       0.00000000
Si      -0.83922823      -2.49638225       2.73883178       0.00000000
Si      -1.97125292      -3.19538616      -0.86708062       0.00000000
