10
Lattice="16.2900001489832 0.0 0.0 0.0 16.2900001489832 0.0 0.0 0.0 29.33687292656838" Properties=species:S:1:pos:R:3:initial_magmoms:R:1 pbc="T T T"
Si       1.25801155       1.98252723      -0.06260489       0.00000000
Si      -2.27388691      -0.00965997       0.64118669       0.00000000
Si       0.50516919      -1.81229510       1.43938433       0.00000000
Si       0.61348141      -0.51478029      -2.26075810       0.00000000
H       -0.37413243       0.61217821       2.58539994       0.00000000
H        0.78946228      -2.00236682      -2.51933330       0.00000000
Si       3.26792064       0.90378550      -0.63699152       0.00000000
Si       0.10309941      -3.55351692      -0.07539576       0.00000000
Si      -3.34499221      -1.24499584      -0.99111691       0.00000000
H       -2.27288182       3.00579988       0.46293585       0.00000000
