10
Lattice="16.2900001489832 0.0 0.0 0.0 16.2900001489832 0.0 0.0 0.0 29.33687292656838" Properties=species:S:1:pos:R:3:initial_magmoms:R:1 pbc="T T T"
Si      -1.35780409      -1.26589591       1.40905001       0.00000000
Si      -1.37854126       1.34227321      -1.37578493       0.00000000
Si       1.34405533      -1.34503273      -1.47684165       0.00000000
Si       1.40605507       1.48531896       1.30458140       0.00000000
Si       2.20797920       0.70980092      -2.48031702       0.00000000
Si       0.46734381       2.39682917      -2.40157773       0.00000000
Si      -2.68736132      -2.59338431      -0.05967707       0.00000000
Si       0.08382834      -2.57168603       2.72489677       0.00000000
Si       2.78936931      -2.59385672      -0.05927809       0.00000000
Si      -2.65748546       2.79775866       0.02764414       0.00000000
