10
Lattice="16.2900001489832 0.0 0.0 0.0 16.2900001489832 0.0 0.0 0.0 29.33687292656838" Properties=species:S:1:pos:R:3:initial_magmoms:R:1 pbc="T T T"
H        0.03246597       0.02407988       0.78570013       0.00000000
Si      -1.41169141      -1.45152633      -1.26172023       0.00000000
H       -1.64485019       2.14983693       0.13937948       0.00000000
Si       1.59606163       0.93994604      -2.12043984       0.00000000
Si      -0.50323068       0.12344073      -2.79501189       0.00000000
Si      -0.42119424       2.74878766       0.80969769       0.00000000
Si       0.01532889      -2.92633888       0.07067253       0.00000000
Si       2.91084384      -0.33742618      -0.66896871       0.00000000
Si       1.42832350       2.72490652      -0.60557173       0.00000000
Si      -3.19412694      -0.22383926      -0.15404792       0.00000000
