10
Lattice="16.2900001489832 0.0 0.0 0.0 16.2900001489832 0.0 0.0 0.0 29.33687292656838" Properties=species:S:1:pos:R:3:initial_magmoms:R:1 pbc="T T T"
H       -0.03246597      -0.02407988      -0.78570013       0.00000000
Si       0.08939952       1.67853139       2.00570333       0.00000000
Si      -0.45366021       2.72470778       0.02399756       0.00000000
H       -1.67731616       2.12575705      -0.64632065       0.00000000
Si      -1.55540179       0.05864889       2.40119371       0.00000000
Si      -1.44415738      -1.47560621      -2.04742036       0.00000000
Si       1.20042640      -2.40805950       1.29337472       0.00000000
Si      -0.01713708      -2.95041876      -0.71502760       0.00000000
Si       2.84767122      -0.77504074       0.83733303       0.00000000
Si       2.38573568       1.28900491       1.77505683       0.00000000
