10
Lattice="16.2900001489832 0.0 0.0 0.0 16.2900001489832 0.0 0.0 0.0 29.33687292656838" Properties=species:S:1:pos:R:3:initial_magmoms:R:1 pbc="T T T"
Si       1.89234904       1.32071665       0.52606881       0.00000000
Si       0.64087793      -2.02132838      -1.13988420       0.00000000
Si      -1.40126093       0.81770262      -1.78699694       0.00000000
Si      -1.47420755      -0.10956654       1.91458300       0.00000000
H        0.25758889       3.04570875      -1.24799057       0.00000000
H        2.86487834      -0.78366304      -1.54030318       0.00000000
Si      -3.16883997      -0.67987945      -1.35102167       0.00000000
Si      -3.51562150       0.29220514       0.79878438       0.00000000
Si       3.67478457       0.09302958      -0.58160351       0.00000000
Si       1.36062226       2.10523817       2.76391481       0.00000000
