10
Lattice="16.2900001489832 0.0 0.0 0.0 16.2900001489832 0.0 0.0 0.0 29.33687292656838" Properties=species:S:1:pos:R:3:initial_magmoms:R:1 pbc="T T T"
Si       2.04695255       0.42596721      -1.07041448       0.00000000
Si      -0.55628722      -2.25236945      -0.61340468       0.00000000
Si       0.60831748       0.03842811       2.32617933       0.00000000
Si      -1.62206047       1.69271021      -0.58876170       0.00000000
H        2.05286582      -0.38607300       2.11240154       0.00000000
H       -2.14889537      -0.36742095      -2.63811830       0.00000000
Si      -2.62918973      -2.16821531       0.57755502       0.00000000
Si       2.61112412       2.51693534      -0.09775046       0.00000000
Si       3.52764840      -1.24401844      -0.25646294       0.00000000
Si      -3.17772291       0.50806881      -1.92649377       0.00000000
