10
Lattice="16.2900001489832 0.0 0.0 0.0 16.2900001489832 0.0 0.0 0.0 29.33687292656838" Properties=species:S:1:pos:R:3:initial_magmoms:R:1 pbc="T T T"
Si      -2.11434428       0.36256653      -0.94262306       0.00000000
Si       0.34419141      -2.24253029      -0.59635995       0.00000000
Si       0.91781119       1.64854802      -1.47394317       0.00000000
H        2.36784926       0.21936114       0.35518152       0.00000000
Si      -0.11852604       0.28334826       2.40295392       0.00000000
H        2.36235953       1.22404690      -1.68772096       0.00000000
Si      -2.39241458       0.97482619       2.56260519       0.00000000
Si       3.62367795      -0.45686934      -0.10807704       0.00000000
Si      -1.86724127      -3.11224037      -0.44782737       0.00000000
Si       1.15046497      -2.05825781      -2.89135418       0.00000000
