10
Lattice="16.2900001489832 0.0 0.0 0.0 16.2900001489832 0.0 0.0 0.0 29.33687292656838" Properties=species:S:1:pos:R:3:initial_magmoms:R:1 pbc="T T T"
Si      -0.30574701       2.03807450      -1.08798727       0.00000000
Si      -1.40217805      -1.22834746      -1.44915351       0.00000000
Si      -0.92862775       0.16161309       2.16611735       0.00000000
Si       2.27388854      -0.69147793      -0.15965126       0.00000000
H       -2.87437053       1.14585490       0.19300729       0.00000000
Si       0.27807030      -0.61225966      -3.50522825       0.00000000
Si      -3.13569471      -1.69414373       0.22410437       0.00000000
Si      -2.84798073       1.45557667       1.67223109       0.00000000
Si       2.39241458      -0.97482619      -2.56260519       0.00000000
Si      -2.09181521      -1.87690124       2.37716681       0.00000000
