10
Lattice="16.2900001489832 0.0 0.0 0.0 16.2900001489832 0.0 0.0 0.0 29.33687292656838" Properties=species:S:1:pos:R:3:initial_magmoms:R:1 pbc="T T T"
Si       0.40462731      -1.87659173       1.30337859       0.00000000
Si      -0.01024641       1.38013768       1.86987361       0.00000000
Si       2.09254826       0.55555417      -0.85830889       0.00000000
Si      -1.81916948      -0.58326346      -1.40687908       0.00000000
H        2.78472666      -0.66241657      -0.24094374       0.00000000
Si      -0.92887210       3.28041507       0.87893271       0.00000000
Si      -1.44489043      -1.85271059       2.71864801       0.00000000
Si      -1.67995514       0.40837401       3.17970631       0.00000000
Si       0.57236545      -3.66155220      -0.21148952       0.00000000
Si      -0.89054173      -0.74487655      -3.57299643       0.00000000
