10
Lattice="16.2900001489832 0.0 0.0 0.0 16.2900001489832 0.0 0.0 0.0 29.33687292656838" Properties=species:S:1:pos:R:3:initial_magmoms:R:1 pbc="T T T"
Si      -1.36428751       1.30359097      -1.41218905       0.00000000
Si      -1.75891277      -1.00220968       1.20718298       0.00000000
Si       1.44117631      -1.53769456      -1.11902568       0.00000000
Si       0.95773798       1.81532504       1.26236564       0.00000000
H        0.50401260      -2.62383032       2.34674448       0.00000000
Si      -0.52481493      -1.74834056       3.05836900       0.00000000
Si      -2.61860123       2.56758095       0.14075832       0.00000000
Si       2.72622926      -0.10318086      -2.54520842       0.00000000
Si      -3.51070680       0.67364038       1.25931461       0.00000000
Si      -0.76668886       3.50871942       1.27553790       0.00000000
