10
Lattice="16.2900001489832 0.0 0.0 0.0 16.2900001489832 0.0 0.0 0.0 29.33687292656838" Properties=species:S:1:pos:R:3:initial_magmoms:R:1 pbc="T T T"
Si      -2.12947769      -0.90570772       0.46569352       0.00000000
Si      -0.67021948       1.85347622      -1.35263520       0.00000000
Si       0.43201080       1.68484214       1.71961014       0.00000000
Si       1.09222822      -1.31536864      -1.90968374       0.00000000
H        2.65062737      -0.93561616       0.02971825       0.00000000
H        2.71191035       1.25771833      -0.68349047       0.00000000
Si       2.23749668       2.35533854       0.24904071       0.00000000
Si      -1.00118341      -1.49040469      -2.90176877       0.00000000
Si      -2.27497997      -2.47697597      -1.23123922       0.00000000
Si      -1.48357918       0.77136409      -3.25043751       0.00000000
