10
Lattice="16.2900001489832 0.0 0.0 0.0 16.2900001489832 0.0 0.0 0.0 29.33687292656838" Properties=species:S:1:pos:R:3:initial_magmoms:R:1 pbc="T T T"
Si       2.06532767       1.05547798      -0.14618564       0.00000000
Si       0.20325033      -1.20630709      -2.00552731       0.00000000
Si      -1.82192249       1.50335524      -0.47188360       0.00000000
Si       0.22693599      -0.40558842       2.43557653       0.00000000
H        1.00831843      -2.52211556       0.72165774       0.00000000
Si      -1.18614007       1.46005642       2.84224426       0.00000000
Si      -3.02662338       0.96343948       1.44044046       0.00000000
Si       1.09630072       0.56242855      -3.32187280       0.00000000
Si       2.34323507       2.27776556       1.74263959       0.00000000
Si       0.16474077       3.20250000       1.88286984       0.00000000
