10
Lattice="16.2900001489832 0.0 0.0 0.0 16.2900001489832 0.0 0.0 0.0 29.33687292656838" Properties=species:S:1:pos:R:3:initial_magmoms:R:1 pbc="T T T"
Si      -0.15012864       2.08557614      -1.10019141       0.00000000
Si      -2.26642772      -0.59777785      -0.40725447       0.00000000
Si       0.71200333       0.69753781       2.17324621       0.00000000
Si       1.19804806      -1.82451260      -1.08220791       0.00000000
H        0.10575468      -2.23125761       1.85857891       0.00000000
Si      -0.42803604       0.86328856      -2.98901663       0.00000000
H        2.60102432      -1.26837199       1.41078088       0.00000000
Si       0.72060445      -3.20445480       0.87054237       0.00000000
H        1.99984187       2.77910661       0.88356794       0.00000000
Si       1.85582198       3.12965112      -0.59040457       0.00000000
