10
Lattice="16.2900001489832 0.0 0.0 0.0 16.2900001489832 0.0 0.0 0.0 29.33687292656838" Properties=species:S:1:pos:R:3:initial_magmoms:R:1 pbc="T T T"
Si       1.21383307       1.93782584      -0.53912371       0.00000000
Si      -1.37205784      -0.06450840      -1.95207552       0.00000000
Si      -0.84163915      -0.57260980       2.17248345       0.00000000
Si       1.43883055      -1.97265386       0.05711889       0.00000000
Si      -2.13936572      -2.18799137      -1.31458528       0.00000000
Si      -2.24523443      -2.23282145       1.04260313       0.00000000
Si       2.89808877       0.78653008      -1.76120983       0.00000000
Si       3.56830824      -1.06694614      -0.40857463       0.00000000
Si       2.43139655       2.48018510       1.46927861       0.00000000
Si      -0.21318723       3.41263839      -1.87151647       0.00000000
