10
Lattice="16.2900001489832 0.0 0.0 0.0 16.2900001489832 0.0 0.0 0.0 29.33687292656838" Properties=species:S:1:pos:R:3:initial_magmoms:R:1 pbc="T T T"
Si       1.35780409       1.26589591      -1.40905001       0.00000000
Si       1.44163243      -1.30579012       1.31584676       0.00000000
Si      -1.29925783       1.39041667       1.40195048       0.00000000
Si      -1.32955723      -1.32748840      -1.46872707       0.00000000
Si       0.11359017      -2.72000648       2.61417941       0.00000000
Si      -2.70067025      -2.67159260      -0.06583194       0.00000000
Si      -0.02073717       2.60816912      -2.78483493       0.00000000
Si      -2.65093688       2.75145922       0.04644027       0.00000000
Si      -2.63231741       0.01985751       2.77013423       0.00000000
Si       2.77377978      -2.69081480      -0.05858574       0.00000000
