10
Lattice="16.2900001489832 0.0 0.0 0.0 16.2900001489832 0.0 0.0 0.0 29.33687292656838" Properties=species:S:1:pos:R:3:initial_magmoms:R:1 pbc="T T T"
Si      -0.91043182      -0.38335257       2.03366137       0.00000000
Si       0.82999180       1.94529252      -1.03435947       0.00000000
Si      -1.87945877      -0.87640201      -1.14202579       0.00000000
Si       1.75343933      -1.64151074       0.37037802       0.00000000
Si       2.11836791       0.60444046      -2.48712141       0.00000000
Si      -0.57982627      -2.20335284      -2.54864084       0.00000000
Si       0.77696785      -3.39299526      -0.98454546       0.00000000
Si       3.40316022      -0.77067991      -1.06046928       0.00000000
Si      -2.77250916      -2.64513764       0.17431970       0.00000000
Si      -2.97575949      -1.43883055       2.17984701       0.00000000
