10
Lattice="16.2900001489832 0.0 0.0 0.0 16.2900001489832 0.0 0.0 0.0 29.33687292656838" Properties=species:S:1:pos:R:3:initial_magmoms:R:1 pbc="T T T"
Si       0.18231768       0.08140602      -2.31054101       0.00000000
Si       1.98570215       0.89721574       0.96937712       0.00000000
Si      -1.74063539       1.68702825       0.07873929       0.00000000
Si      -0.86392387      -2.05483365       1.00347537       0.00000000
Si       0.64053910       2.22101446       2.46233058       0.00000000
Si      -2.20797920      -0.70980092       2.48031702       0.00000000
Si      -2.18020475       0.14450696      -2.93333349       0.00000000
Si       1.41037192      -1.79259723      -3.03580719       0.00000000
Si      -3.58652046       0.63247229       1.10453209       0.00000000
Si      -0.83149048       3.57541394       1.13362840       0.00000000
