10
Lattice="16.2900001489832 0.0 0.0 0.0 16.2900001489832 0.0 0.0 0.0 29.33687292656838" Properties=species:S:1:pos:R:3:initial_magmoms:R:1 pbc="T T T"
Si       0.53569665      -2.13686520      -0.63511396       0.00000000
Si      -0.03070665      -0.41353469       2.29200187       0.00000000
Si      -1.31478220       1.27737222      -1.45147112       0.00000000
Si       1.73762174       1.57906302       0.08912542       0.00000000
H       -2.91084384       0.33742618       0.66896871       0.00000000
H       -2.87837787       0.36150605       1.45466884       0.00000000
Si      -1.48252033       3.06233269       0.06339698       0.00000000
Si       0.45655983       3.02434441       1.50735787       0.00000000
Si      -0.49264218       1.65051096       3.22972568       0.00000000
Si       1.48370950      -1.95223434      -2.75176934       0.00000000
