10
Lattice="16.2900001489832 0.0 0.0 0.0 16.2900001489832 0.0 0.0 0.0 29.33687292656838" Properties=species:S:1:pos:R:3:initial_magmoms:R:1 pbc="T T T"
Si      -1.29847591       1.10693809       1.58800493       0.00000000
Si      -1.00729216       0.83509057      -1.93770046       0.00000000
Si      -0.05483214      -2.30069699       0.68574940       0.00000000
Si       0.19930815      -1.76287124       2.99438528       0.00000000
Si       0.74582137       1.92880118      -3.06332693       0.00000000
Si      -1.77756482      -0.46467225       3.28185730       0.00000000
Si      -2.04903767      -0.91670347      -3.13033235       0.00000000
Si      -2.77917177       2.77692375       0.77405339       0.00000000
Si      -1.91326052      -3.51062698      -0.23258273       0.00000000
H       -0.60781249       2.07720308       3.37327100       0.00000000
