10
Lattice="16.2900001489832 0.0 0.0 0.0 16.2900001489832 0.0 0.0 0.0 29.33687292656838" Properties=species:S:1:pos:R:3:initial_magmoms:R:1 pbc="T T T"
Si       0.24919791      -1.94659474      -1.25200973       0.00000000
Si       1.69044590      -0.20171907       1.67883189       0.00000000
Si       0.61408088       1.66900826      -1.61276525       0.00000000
Si      -1.87061330       0.06024042       1.52575209       0.00000000
Si      -0.87202000      -1.36295825       3.23723592       0.00000000
Si       2.87433795       2.08487567      -0.79168485       0.00000000
Si      -0.95187358      -3.58461453      -0.07530775       0.00000000
Si      -2.09129393       2.33484572       2.20839178       0.00000000
Si       1.52686171       1.77096737       3.06265219       0.00000000
Si       1.04039344       0.64765783      -3.75799475       0.00000000
