10
Lattice="16.2900001489832 0.0 0.0 0.0 16.2900001489832 0.0 0.0 0.0 29.33687292656838" Properties=species:S:1:pos:R:3:initial_magmoms:R:1 pbc="T T T"
Si      -0.37649448       0.63141670      -2.23514701       0.00000000
Si      -0.16822683       1.95439277       1.33896422       0.00000000
Si       2.00529902      -0.86159440       0.95388842       0.00000000
Si      -1.40649490      -2.00953442      -0.04133565       0.00000000
H       -2.67406868      -0.14718015       0.56643634       0.00000000
H        0.20271276      -0.40164624      -3.16659273       0.00000000
Si      -3.36624708       1.07079058      -0.05092881       0.00000000
Si       2.22021299      -2.77687488      -0.44301612       0.00000000
Si       0.06748947      -3.35187930      -1.33814278       0.00000000
Si       0.21001068       0.88295059       3.52491329       0.00000000
