10
Lattice="16.2900001489832 0.0 0.0 0.0 16.2900001489832 0.0 0.0 0.0 29.33687292656838" Properties=species:S:1:pos:R:3:initial_magmoms:R:1 pbc="T T T"
Si       0.98981299       1.72533908      -1.22960343       0.00000000
Si      -1.15580809       1.34928442       1.55888809       0.00000000
Si       1.54929304      -1.36549297       1.28530708       0.00000000
Si      -1.84278998      -0.81063928      -1.37797639       0.00000000
Si      -2.52767045      -2.62221761       0.05127792       0.00000000
Si      -2.47274057       2.70777269       0.16744900       0.00000000
H        2.17072397      -0.93336814      -2.80993850       0.00000000
Si       1.55250217       0.66474604      -3.29088719       0.00000000
Si      -3.46436175       0.96534541      -1.08921942       0.00000000
Si      -0.58112947       3.57296718      -1.04817039       0.00000000
