10
Lattice="16.2900001489832 0.0 0.0 0.0 16.2900001489832 0.0 0.0 0.0 29.33687292656838" Properties=species:S:1:pos:R:3:initial_magmoms:R:1 pbc="T T T"
Si      -0.23309361      -1.58396468       1.71259863       0.00000000
Si       2.15651909      -0.91561204      -0.45442816       0.00000000
Si      -1.69044590       0.20171907      -1.67883189       0.00000000
Si      -0.16358418       1.97268644       1.38382030       0.00000000
Si      -2.56246589      -1.16123918       1.55840403       0.00000000
Si       2.92987056       1.09284724      -1.29475355       0.00000000
Si       1.18389205       2.28659474      -2.47051674       0.00000000
Si      -3.56105919       0.26195949      -0.15307980       0.00000000
H        0.84189979       3.29527155      -1.19192781       0.00000000
Si       1.70065973      -0.94016107       3.06406036       0.00000000
