10
Lattice="16.2900001489832 0.0 0.0 0.0 16.2900001489832 0.0 0.0 0.0 29.33687292656838" Properties=species:S:1:pos:R:3:initial_magmoms:R:1 pbc="T T T"
Si       0.85595806       1.89045452      -1.21962182       0.00000000
Si      -1.89433154      -0.96156613      -1.15109088       0.00000000
Si      -0.02731833       0.23912091       2.42381244       0.00000000
Si       1.74456128      -1.70271227      -0.28794141       0.00000000
Si       2.08902962       0.66233512      -2.82514086       0.00000000
Si      -0.67502503      -2.11584296      -2.83549678       0.00000000
Si       3.49767480      -0.60900166      -1.41356789       0.00000000
Si       0.70281577      -3.45450630      -1.48057330       0.00000000
Si       1.45337752      -1.43086474       3.23776398       0.00000000
Si       2.69527826       2.79024897       0.07929757       0.00000000
