10
Lattice="16.2900001489832 0.0 0.0 0.0 16.2900001489832 0.0 0.0 0.0 29.33687292656838" Properties=species:S:1:pos:R:3:initial_magmoms:R:1 pbc="T T T"
Si      -1.33481890      -1.84601540      -0.59313290       0.00000000
Si      -0.62561746       0.14589324       2.28120590       0.00000000
Si      -0.36704628       2.00899685      -1.22713206       0.00000000
Si       2.36413514      -0.29348064       0.09698770       0.00000000
H        0.06656094      -1.07207749       2.89857106       0.00000000
H        2.94334239      -1.32654358      -0.83445801       0.00000000
H        1.15155640      -1.91000252      -2.64090530       0.00000000
Si       3.05590629       1.73784980      -0.86769669       0.00000000
Si       1.38251602       3.37082457      -0.41919458       0.00000000
Si       2.74062963      -0.92489734       2.33213471       0.00000000
