10
Lattice="16.2900001489832 0.0 0.0 0.0 16.2900001489832 0.0 0.0 0.0 29.33687292656838" Properties=species:S:1:pos:R:3:initial_magmoms:R:1 pbc="T T T"
Si       1.31693248      -1.35848827       1.39143908       0.00000000
Si      -1.47295810       1.36818082       1.23869372       0.00000000
Si      -0.99162118      -1.74242729      -1.25666842       0.00000000
Si       1.89161111       0.86519449      -1.21561939       0.00000000
Si      -0.04823469       1.46922769      -2.28351178       0.00000000
Si      -1.39745395      -0.28339713      -3.11491876       0.00000000
Si       2.47274057      -2.70777269      -0.16744900       0.00000000
Si      -0.01544292       2.71808426       2.58098180       0.00000000
Si      -0.09938529      -2.70353729       2.67277688       0.00000000
Si      -2.73864225      -0.05838336       2.64012494       0.00000000
