10
Lattice="16.2900001489832 0.0 0.0 0.0 16.2900001489832 0.0 0.0 0.0 29.33687292656838" Properties=species:S:1:pos:R:3:initial_magmoms:R:1 pbc="T T T"
Si      -2.01139148      -0.62690437       0.93804651       0.00000000
Si       0.04005711       2.30166299       0.46971267       0.00000000
Si       1.72818983      -0.92533717       1.31760697       0.00000000
Si      -0.17115903      -0.38978712      -2.34738989       0.00000000
H       -1.31074228       2.98853085       0.30017488       0.00000000
Si      -3.19116216       1.05244804      -0.24006363       0.00000000
H       -0.72941734      -3.29279547      -0.13723789       0.00000000
Si       3.42143760       0.40966092       0.28374624       0.00000000
H        1.43602867      -3.18047592      -0.72083630       0.00000000
Si      -2.17396568      -2.86829436       0.07653990       0.00000000
