10
Lattice="16.2900001489832 0.0 0.0 0.0 16.2900001489832 0.0 0.0 0.0 29.33687292656838" Properties=species:S:1:pos:R:3:initial_magmoms:R:1 pbc="T T T"
Si       1.93984580      -0.60403321       1.06789239       0.00000000
Si      -1.34921926      -1.75262483      -0.83140698       0.00000000
Si      -1.03747753       2.03147705       0.66216256       0.00000000
Si       0.04823469      -1.46922769       2.28351178       0.00000000
Si      -1.43373178       2.56456730      -1.60182260       0.00000000
H        0.78488479      -0.05589099      -3.29171449       0.00000000
Si      -0.94338649      -3.21165498       1.02684336       0.00000000
Si      -2.82737388       1.19068498       2.02341400       0.00000000
Si       2.86368429       1.25446033       2.15359931       0.00000000
Si      -1.42472341      -0.10104687       3.52220550       0.00000000
