10
Lattice="16.2900001489832 0.0 0.0 0.0 16.2900001489832 0.0 0.0 0.0 29.33687292656838" Properties=species:S:1:pos:R:3:initial_magmoms:R:1 pbc="T T T"
Si      -1.38326536       1.45922563       1.24878267       0.00000000
Si      -1.39022119      -1.30870603      -1.41233574       0.00000000
Si       1.29365407       1.39165471      -1.45948009       0.00000000
Si       1.41485167      -1.37438731       1.42770826       0.00000000
Si      -2.65248443      -2.68524362       0.08727720       0.00000000
Si       2.69506649       2.68118741      -0.09863057       0.00000000
Si       2.75748978      -2.63016713      -0.07715598       0.00000000
Si      -0.04987998       2.79236667       2.62644222       0.00000000
Si      -0.00752598      -2.63052551      -2.78923253       0.00000000
Si       2.70164765       0.03741813      -2.76391481       0.00000000
