10
Lattice="16.2900001489832 0.0 0.0 0.0 16.2900001489832 0.0 0.0 0.0 29.33687292656838" Properties=species:S:1:pos:R:3:initial_magmoms:R:1 pbc="T T T"
Si       0.14822271       2.11450718       0.94247638       0.00000000
Si      -2.26212716       0.12965211      -0.51694504       0.00000000
Si       1.25428114       0.29460465      -1.94265839       0.00000000
Si       0.67909753      -2.10489608       0.92766126       0.00000000
H       -1.10245834      -2.05372919      -2.43695536       0.00000000
Si      -2.28182177      -1.09861390      -2.48885229       0.00000000
Si       1.85515409      -1.90469198      -2.48072597       0.00000000
Si       3.05435874       1.60945201      -1.21642410       0.00000000
Si      -3.36010575      -0.75557908       1.31399854       0.00000000
Si      -0.79979014       1.92987632       3.05913176       0.00000000
