10
Lattice="16.2900001489832 0.0 0.0 0.0 16.2900001489832 0.0 0.0 0.0 29.33687292656838" Properties=species:S:1:pos:R:3:initial_magmoms:R:1 pbc="T T T"
Si      -1.33338538      -1.33314103      -1.37765955       0.00000000
Si       1.49006260       1.28181124      -1.31924984       0.00000000
Si       1.34928442      -1.31960404       1.45320200       0.00000000
Si      -1.17659413       1.45568907       1.48940370       0.00000000
Si       2.30725046       0.91513963       2.04923925       0.00000000
Si       0.68183425       2.66561906       2.40773583       0.00000000
Si      -1.67368349      -0.09536166       3.30620691       0.00000000
Si      -2.98310628      -2.20397186       0.05318775       0.00000000
Si       0.11318292       2.68004060      -2.70321682       0.00000000
Si       0.04987998      -2.79236667      -2.62644222       0.00000000
