10
Lattice="16.2900001489832 0.0 0.0 0.0 16.2900001489832 0.0 0.0 0.0 29.33687292656838" Properties=species:S:1:pos:R:3:initial_magmoms:R:1 pbc="T T T"
H        0.14401989      -0.35054451       1.47397251       0.00000000
Si      -2.00595062      -1.04407498      -0.50978684       0.00000000
Si       1.68943592      -1.41591052      -0.80887626       0.00000000
Si       0.11463273       2.32834601       0.36013945       0.00000000
Si       2.18652527       0.13514021      -2.62567946       0.00000000
Si      -0.69164083       2.14407353       2.65513368       0.00000000
Si       2.75968893      -1.65421694       1.42090210       0.00000000
Si       1.03532725      -1.39973455       3.19431607       0.00000000
Si      -1.85582198      -3.12965112       0.59040457       0.00000000
Si      -1.14381865      -2.43211331       2.76365078       0.00000000
