10
Lattice="16.2900001489832 0.0 0.0 0.0 16.2900001489832 0.0 0.0 0.0 29.33687292656838" Properties=species:S:1:pos:R:3:initial_magmoms:R:1 pbc="T T T"
Si      -0.14401989       0.35054451      -1.47397251       0.00000000
Si       0.89130736      -1.04919004       1.72034357       0.00000000
Si      -1.28783854      -2.08156880       1.28967827       0.00000000
Si      -0.83566072       2.49461804       1.18116118       0.00000000
Si      -0.02938716       2.67889052      -1.11383305       0.00000000
Si       2.61566903      -1.30367242      -0.05307040       0.00000000
Si       1.54541602      -1.06536601      -2.28284877       0.00000000
Si       0.59663755       1.21434946       2.67214907       0.00000000
Si      -2.14997051      -0.69353047      -1.98375935       0.00000000
Si      -1.99984187      -2.77910661      -0.88356794       0.00000000
