10
Lattice="16.2900001489832 0.0 0.0 0.0 16.2900001489832 0.0 0.0 0.0 29.33687292656838" Properties=species:S:1:pos:R:3:initial_magmoms:R:1 pbc="T T T"
Si      -1.86341312      -0.88770727      -1.07029713       0.00000000
Si       1.21718881       1.43571428      -1.40189181       0.00000000
Si      -1.22805424       1.87400325       0.72526617       0.00000000
Si       2.13625433      -0.91525366       0.66430415       0.00000000
H       -1.38899944      -1.98532748      -2.00282831       0.00000000
Si       3.25860276       1.03394260      -0.28609318       0.00000000
Si       0.00736308       3.39833838      -0.78558278       0.00000000
Si      -1.41037192       1.79259723       3.03580719       0.00000000
Si       1.56397033       0.46362969      -3.55169786       0.00000000
Si       2.78578551      -2.71671590      -0.69281959       0.00000000
