10
Lattice="16.2900001489832 0.0 0.0 0.0 16.2900001489832 0.0 0.0 0.0 29.33687292656838" Properties=species:S:1:pos:R:3:initial_magmoms:R:1 pbc="T T T"
Si      -1.21718881      -1.43571428       1.40189181       0.00000000
Si       2.04141395      -0.40177168       1.11579862       0.00000000
Si       0.34678152      -0.97208458      -2.14980605       0.00000000
Si      -1.20982573       1.96262410       0.61630903       0.00000000
Si       0.91906552      -2.35096793       2.06619596       0.00000000
Si      -2.44524305       0.43828897       2.12715798       0.00000000
Si       2.11436057       0.52549749      -2.58578132       0.00000000
Si       3.51562150      -0.29220514      -0.79878438       0.00000000
Si      -3.08060193      -2.32342154       0.33159467       0.00000000
Si      -1.12461274      -0.32515981      -3.79416711       0.00000000
