10
Lattice="16.2900001489832 0.0 0.0 0.0 16.2900001489832 0.0 0.0 0.0 29.33687292656838" Properties=species:S:1:pos:R:3:initial_magmoms:R:1 pbc="T T T"
Si       0.69555043       0.49459698      -2.19422207       0.00000000
Si      -0.21491397       1.91528048       1.39690454       0.00000000
Si      -2.15272352      -0.57500443      -0.89512667       0.00000000
Si       1.09955872      -2.03624024       0.69223285       0.00000000
H        2.75840853       0.19176588       1.23123922       0.00000000
H       -0.37377405       1.16160733      -3.02111117       0.00000000
Si       2.36080090      -2.26533955      -1.25969599       0.00000000
Si      -2.22021299       2.77687488       0.44301612       0.00000000
Si      -2.13941459      -2.88689754      -0.51615294       0.00000000
Si      -3.62670789       0.76734046       0.40168046       0.00000000
