10
Lattice="16.2900001489832 0.0 0.0 0.0 16.2900001489832 0.0 0.0 0.0 29.33687292656838" Properties=species:S:1:pos:R:3:initial_magmoms:R:1 pbc="T T T"
Si       1.37722824       1.29749851      -1.45637625       0.00000000
Si      -1.29373552       1.40033728       1.44220067       0.00000000
Si      -1.35400852      -1.34736220      -1.44713514       0.00000000
Si       1.32761872      -1.39432627       1.43480778       0.00000000
Si      -2.64409508      -2.65543292       0.08962415       0.00000000
Si       2.67289743       2.67346595       0.02907284       0.00000000
Si      -0.10088397       2.71658558      -2.71759189       0.00000000
Si       2.75326904      -2.69549003       0.08856802       0.00000000
Si      -2.69294879       2.75771784       0.13891009       0.00000000
Si      -2.66146022       0.05706387       2.80167136       0.00000000
