10
Lattice="16.2900001489832 0.0 0.0 0.0 16.2900001489832 0.0 0.0 0.0 29.33687292656838" Properties=species:S:1:pos:R:3:initial_magmoms:R:1 pbc="T T T"
Si       1.24994800      -0.07172487      -1.96733070       0.00000000
Si      -0.71807950       2.28525896      -0.21307371       0.00000000
Si       0.00777033      -1.43557255       2.02031309       0.00000000
Si       2.61023469       1.36148563       0.93704906       0.00000000
H       -2.72311787      -0.98482825       1.14724775       0.00000000
Si      -0.73770895       2.60530859       2.15183029       0.00000000
Si      -2.20217996      -1.01416654       2.62720498       0.00000000
Si       2.32411387       2.14272146      -1.94711759       0.00000000
Si       1.49060506       2.25248348       2.74689942       0.00000000
Si       2.71314514      -2.10141002      -1.80084394       0.00000000
