10
Lattice="16.2900001489832 0.0 0.0 0.0 16.2900001489832 0.0 0.0 0.0 29.33687292656838" Properties=species:S:1:pos:R:3:initial_magmoms:R:1 pbc="T T T"
Si      -1.74894329      -1.14593635       1.03157246       0.00000000
Si       1.86328280      -0.66653794       1.29780458       0.00000000
Si       0.40948173      -0.68577643      -2.28560643       0.00000000
Si      -0.17795196       2.38790225       0.44407225       0.00000000
Si       3.23123556       0.87066793      -0.09546218       0.00000000
Si      -1.57778425      -0.75614923       3.37896235       0.00000000
Si      -2.49144149       2.95161771       0.00457655       0.00000000
Si      -2.31311486      -3.23690448       0.05890844       0.00000000
Si       1.19412217       1.14310189      -3.63586535       0.00000000
Si       0.11907990       2.82571230       2.84321238       0.00000000
