10
Lattice="16.2900001489832 0.0 0.0 0.0 16.2900001489832 0.0 0.0 0.0 29.33687292656838" Properties=species:S:1:pos:R:3:initial_magmoms:R:1 pbc="T T T"
Si      -1.86328280       0.66653794      -1.29780458       0.00000000
Si      -0.01962945       0.32004963       2.36490400       0.00000000
Si       0.71807950      -2.28525896       0.21307371       0.00000000
Si       1.36795276       1.53720586      -1.39326677       0.00000000
Si       3.04219337      -0.14253750      -1.73404388       0.00000000
Si       1.96802750      -2.35698383      -1.75425699       0.00000000
Si       3.32831419      -0.92377333       1.15012277       0.00000000
Si      -3.61222608      -0.47939841      -0.26623212       0.00000000
Si       2.20868456      -0.03277548       2.95997313       0.00000000
Si      -2.04123476       3.05444019      -0.85373234       0.00000000
