10
Lattice="16.2900001489832 0.0 0.0 0.0 16.2900001489832 0.0 0.0 0.0 29.33687292656838" Properties=species:S:1:pos:R:3:initial_magmoms:R:1 pbc="T T T"
Si      -2.31316373       0.38467206       0.12652993       0.00000000
Si       1.11262167      -1.61875360       1.29117445       0.00000000
Si       0.73617769       1.98483226       1.03078037       0.00000000
Si       0.65632411      -0.23682402      -2.28176330       0.00000000
Si       3.24965955      -0.77353066       0.84554735       0.00000000
Si      -0.26241561       3.40803093      -0.68070346       0.00000000
Si      -0.34570638       1.68512558       3.08339336       0.00000000
Si      -2.43245540       0.87660075       2.42082008       0.00000000
Si      -2.40686381       2.29330622      -1.25001482       0.00000000
Si       3.06554997       1.56210676       1.18497497       0.00000000
