10
Lattice="16.2900001489832 0.0 0.0 0.0 16.2900001489832 0.0 0.0 0.0 29.33687292656838" Properties=species:S:1:pos:R:3:initial_magmoms:R:1 pbc="T T T"
Si      -1.47139426       0.64692478      -1.64436106       0.00000000
Si       1.76757905       1.49758207      -0.43597527       0.00000000
Si      -0.34678152       0.97208458       2.14980605       0.00000000
Si       0.32617467      -2.33764760      -0.62205905       0.00000000
Si       3.16883997       0.67987945       1.35102167       0.00000000
Si      -0.73399483      -0.57028033      -3.54850014       0.00000000
Si       2.11058129      -2.95119417       0.67201975       0.00000000
Si       1.69463243       0.57031291       3.26560467       0.00000000
Si       0.66802033       3.53382231      -1.12820812       0.00000000
Si       0.84561391      -2.23910939      -2.97751658       0.00000000
