10
Lattice="16.2900001489832 0.0 0.0 0.0 16.2900001489832 0.0 0.0 0.0 29.33687292656838" Properties=species:S:1:pos:R:3:initial_magmoms:R:1 pbc="T T T"
Si      -1.37722824      -1.29749851       1.45637625       0.00000000
Si       1.29566919       1.37596744       1.48544909       0.00000000
Si      -1.47811221       1.41908707      -1.26121564       0.00000000
Si       1.44662048      -1.43205391      -1.35380574       0.00000000
Si      -2.73123676      -2.64486071       0.00924111       0.00000000
Si       2.75800459      -2.61061913       0.21180049       0.00000000
Si       2.59723858       2.80635978       0.14411739       0.00000000
Si      -2.69440507       2.78746338       0.22798271       0.00000000
Si       2.75487691      -0.07964181      -2.76828014       0.00000000
Si      -2.67096376       0.10283877       2.89857692       0.00000000
