10
Lattice="16.2900001489832 0.0 0.0 0.0 16.2900001489832 0.0 0.0 0.0 29.33687292656838" Properties=species:S:1:pos:R:3:initial_magmoms:R:1 pbc="T T T"
H       -0.34199226       1.00867681       1.27858893       0.00000000
Si       1.19744533       1.48253662      -1.32828560       0.00000000
Si       1.74597851      -1.19374750       1.17576319       0.00000000
Si      -2.26025707      -0.41586741      -0.82108040       0.00000000
H        2.22627287       0.60704686      -2.03991012       0.00000000
Si      -0.70705117       1.65618803       2.78876314       0.00000000
Si      -1.18389205      -2.28659474       2.47051674       0.00000000
Si      -2.87433795      -2.08487567       0.79168485       0.00000000
Si      -1.83394451      -1.43721784      -2.96630990       0.00000000
Si       2.75310777       2.66717801       0.00944647       0.00000000
