10
Lattice="16.2900001489832 0.0 0.0 0.0 16.2900001489832 0.0 0.0 0.0 29.33687292656838" Properties=species:S:1:pos:R:3:initial_magmoms:R:1 pbc="T T T"
Si      -0.60544066       1.28669824      -1.77388336       0.00000000
Si      -0.48753690      -2.18735606      -0.69100070       0.00000000
Si      -1.24888426       0.56796715       1.91992231       0.00000000
Si       2.18760530       0.82718992       0.48872297       0.00000000
H        1.67624590      -1.16629885       1.65339682       0.00000000
Si       0.51291998       3.16496784      -0.93719574       0.00000000
Si      -0.67185662      -2.94428721       1.55285936       0.00000000
Si      -0.63408663      -1.26894214       3.22831751       0.00000000
Si       2.17030532      -0.99513982      -2.71178319       0.00000000
Si       0.51418897       0.39570039      -3.58373372       0.00000000
