10
Lattice="16.2900001489832 0.0 0.0 0.0 16.2900001489832 0.0 0.0 0.0 29.33687292656838" Properties=species:S:1:pos:R:3:initial_magmoms:R:1 pbc="T T T"
Si       0.72087486       1.94823515       1.18658557       0.00000000
Si      -1.93857518      -0.68458726       1.25824088       0.00000000
Si      -0.21551670      -0.39965886      -2.36959790       0.00000000
Si       1.67498669      -1.80965612       0.30250423       0.00000000
Si      -2.57924459      -0.48506733      -2.09497543       0.00000000
H       -2.83555146       1.16755318      -1.54561315       0.00000000
Si       2.03225897       0.76966993       2.75219179       0.00000000
Si      -0.75831580      -2.02199627       2.79347464       0.00000000
Si       0.80134909      -2.64056015      -2.29059370       0.00000000
Si      -2.94267450      -2.10258290      -0.33180003       0.00000000
