10
Lattice="16.2900001489832 0.0 0.0 0.0 16.2900001489832 0.0 0.0 0.0 29.33687292656838" Properties=species:S:1:pos:R:3:initial_magmoms:R:1 pbc="T T T"
Si      -0.88585998      -1.85968271       1.10556006       0.00000000
Si       1.94360879       0.43326513       1.25024951       0.00000000
Si      -1.49683761       1.84104695       0.10760765       0.00000000
Si      -1.17198080      -1.07844688      -1.77860659       0.00000000
Si      -2.84622141       0.60129649      -1.43782948       0.00000000
H        3.23794704       0.51707718      -1.19518420       0.00000000
Si       2.45656460       2.63360432       0.51873459       0.00000000
Si      -2.00548961      -0.96868486       2.91541042       0.00000000
Si       1.36909306       0.35103321       3.56275786       0.00000000
Si       0.77025637      -3.25052292       1.97751059       0.00000000
