10
Lattice="16.2900001489832 0.0 0.0 0.0 16.2900001489832 0.0 0.0 0.0 29.33687292656838" Properties=species:S:1:pos:R:3:initial_magmoms:R:1 pbc="T T T"
Si      -1.21521609       1.31070970       1.52163906       0.00000000
Si       1.01965790       1.66718378      -1.32798049       0.00000000
Si       1.38953864      -1.37283976       1.36934842       0.00000000
Si      -1.82019412      -0.91342918      -1.27037343       0.00000000
Si       2.00510517       0.09249462      -2.90727237       0.00000000
Si      -2.50575877       2.62495433       0.10122395       0.00000000
Si      -3.39853223       0.95254147      -1.29459669       0.00000000
Si      -0.73414469       3.54737559      -1.13254235       0.00000000
Si       2.65111770      -2.72091872      -0.04837650       0.00000000
Si      -2.56870333      -0.05103657       2.84583509       0.00000000
