10
Lattice="16.2900001489832 0.0 0.0 0.0 16.2900001489832 0.0 0.0 0.0 29.33687292656838" Properties=species:S:1:pos:R:3:initial_magmoms:R:1 pbc="T T T"
Si      -1.34619160      -1.31167081       1.38162003       0.00000000
Si      -1.40203372       1.35591445      -1.30513880       0.00000000
Si       1.25463887      -1.39628107      -1.44029378       0.00000000
Si       1.35582746       1.31243644       1.44217134       0.00000000
Si       2.55620825       0.03411126      -2.78162548       0.00000000
Si       2.63536136      -2.71060715      -0.02182663       0.00000000
Si      -0.04854648       2.71766072      -2.62933484       0.00000000
Si      -0.11025300       2.58289355       2.79040601       0.00000000
Si      -2.71199409      -2.66940974      -0.02716594       0.00000000
Si       2.69284877       2.70153362       0.04039687       0.00000000
