10
Lattice="16.2900001489832 0.0 0.0 0.0 16.2900001489832 0.0 0.0 0.0 29.33687292656838" Properties=species:S:1:pos:R:3:initial_magmoms:R:1 pbc="T T T"
Si      -1.08188407      -0.29970668       2.05261299       0.00000000
Si      -0.73617769      -1.98483226      -1.03078037       0.00000000
Si       2.32937228      -0.42272550       0.15419460       0.00000000
Si      -0.99859330       1.42319867      -1.71148383       0.00000000
Si       2.56246589       1.16123918      -1.55840403       0.00000000
H        1.93034873       0.79733686       2.48348364       0.00000000
Si      -3.04934142      -1.60016020      -0.90425043       0.00000000
Si       0.87202000       1.36295825      -3.23723592       0.00000000
Si       0.37644398      -3.60358587       0.26039408       0.00000000
Si      -3.16863309      -1.10823152       1.39003971       0.00000000
