10
Lattice="16.2900001489832 0.0 0.0 0.0 16.2900001489832 0.0 0.0 0.0 29.33687292656838" Properties=species:S:1:pos:R:3:initial_magmoms:R:1 pbc="T T T"
Si      -1.01965790      -1.66718378       1.32798049       0.00000000
Si       1.79206292       0.98003899       1.22596152       0.00000000
Si       0.98544727      -1.57468915      -1.57929188       0.00000000
Si      -1.75380259       1.88019182       0.19543814       0.00000000
Si      -2.23487399      -0.35647407       2.84961955       0.00000000
Si       0.59075686       2.32674959       2.78527205       0.00000000
Si      -2.83985202      -2.58061295       0.05760706       0.00000000
Si       3.08780211       2.32433867      -0.24537361       0.00000000
Si       2.68900661      -2.81116533      -0.14935402       0.00000000
Si      -3.52541667       0.95777056       1.42920444       0.00000000
