10
Lattice="16.2900001489832 0.0 0.0 0.0 16.2900001489832 0.0 0.0 0.0 29.33687292656838" Properties=species:S:1:pos:R:3:initial_magmoms:R:1 pbc="T T T"
Si       1.20470090       0.53991576      -1.91232406       0.00000000
Si      -1.55190922       1.71116678       0.38152603       0.00000000
Si      -0.69984284      -2.16158528       0.58400913       0.00000000
Si       1.84048331       0.49661694       1.40180380       0.00000000
Si      -0.35083773       3.34918656      -0.79517594       0.00000000
Si       3.02662338      -0.96343948      -1.44044046       0.00000000
Si      -1.31160467      -1.69619627       2.85242415       0.00000000
Si       1.87610954       2.76050994      -1.43152205       0.00000000
Si       3.25355938      -1.36902790       0.99513607       0.00000000
Si      -0.35431565       1.25928217      -3.56818518       0.00000000
