10
Lattice="16.2900001489832 0.0 0.0 0.0 16.2900001489832 0.0 0.0 0.0 29.33687292656838" Properties=species:S:1:pos:R:3:initial_magmoms:R:1 pbc="T T T"
Si       2.22852089      -0.40705452       0.31721961       0.00000000
Si      -0.40206978      -1.74122183      -1.51478010       0.00000000
Si      -0.50516919       1.81229510      -1.43938433       0.00000000
Si      -1.22826601      -0.17598087       2.02415622       0.00000000
H       -0.87930163       2.42447330       1.14601560       0.00000000
Si      -2.77905611       1.80263513      -0.79819764       0.00000000
Si      -3.10330204       1.18680796       1.54643458       0.00000000
Si       3.32649948       0.47817666      -1.51372397       0.00000000
Si       3.04188060       0.67505761       2.21502192       0.00000000
Si      -2.68613632      -1.47463597      -2.29675444       0.00000000
