10
Lattice="10.86 0.0 0.0 0.0 10.86 0.0 0.0 0.0 10.86" Properties=species:S:1:pos:R:3:initial_magmoms:R:1 pbc="T T T"
Si      -1.38141372      -1.40189568       1.11293280       0.00000000
Si      -1.38141372       1.31310432      -1.60206720       0.00000000
Si       1.33358628      -1.40189568      -1.60206720       0.00000000
Si       2.76061200      -0.03848784       2.36713248       0.00000000
Si       0.09717528       2.73653538       2.45231832       0.00000000
Si      -2.73891372      -0.04439568       2.47043280       0.00000000
Si      -0.02391372      -2.75939568       2.47043280       0.00000000
Si      -2.73891372       2.67060432      -0.24456720       0.00000000
Si       2.69108628      -2.75939568      -0.24456720       0.00000000
Si      -2.73891372      -2.75939568      -0.24456720       0.00000000
