10
Lattice="10.86 0.0 0.0 0.0 10.86 0.0 0.0 0.0 10.86" Properties=species:S:1:pos:R:3:initial_magmoms:R:1 pbc="T T T"
Si       1.41654582       1.26182340       1.26790500       0.00000000
Si      -1.29845418       1.26182340      -1.44709500       0.00000000
Si      -1.48070670      -1.44124146       1.09035486       0.00000000
Si       1.41654582      -1.45317660      -1.44709500       0.00000000
Si       0.04607898      -2.53335564       2.40164556       0.00000000
Si       0.05904582       2.61932340       2.62540500       0.00000000
Si      -2.77413270      -0.15276762       2.47179030       0.00000000
Si      -2.65595418       2.61932340      -0.08959500       0.00000000
Si       2.77404582       2.61932340      -0.08959500       0.00000000
Si       0.05904582       2.61932340      -2.80459500       0.00000000
