10
Lattice="10.86 0.0 0.0 0.0 10.86 0.0 0.0 0.0 10.86" Properties=species:S:1:pos:R:3:initial_magmoms:R:1 pbc="T T T"
Si      -1.15463520       1.41528606      -1.43021856       0.00000000
Si       1.56036480       1.41528606       1.28478144       0.00000000
Si       1.56036480      -1.29971394      -1.43021856       0.00000000
Si      -2.52510204       0.33510702       2.41852200       0.00000000
Si      -2.43217302      -2.59989486      -0.14818470       0.00000000
Si      -0.08728182      -2.64585438       2.51463300       0.00000000
Si      -2.51213520       0.05778606      -2.78771856       0.00000000
Si       0.33490068       2.68998942       2.68957674       0.00000000
Si      -2.57118102       2.86846266       0.01687644       0.00000000
Si       0.20286480      -2.65721394      -2.78771856       0.00000000
