10
Lattice="10.86 0.0 0.0 0.0 10.86 0.0 0.0 0.0 10.86" Properties=species:S:1:pos:R:3:initial_magmoms:R:1 pbc="T T T"
Si      -1.23932148       1.41459102      -1.20388530       0.00000000
Si       1.29342600      -1.28847384      -1.38143544       0.00000000
Si      -1.23932148      -1.30040898       1.51111470       0.00000000
Si       1.47567852       1.41459102       1.51111470       0.00000000
Si      -2.59682148       0.05709102      -2.56138530       0.00000000
Si       2.82021168      -2.38058802      -0.07014474       0.00000000
Si       2.77413270       0.15276762      -2.47179030       0.00000000
Si      -2.59682148      -2.65790898       0.15361470       0.00000000
Si       0.11817852       2.77209102      -2.56138530       0.00000000
Si      -2.59682148       2.77209102       0.15361470       0.00000000
