10
Lattice="10.86 0.0 0.0 0.0 10.86 0.0 0.0 0.0 10.86" Properties=species:S:1:pos:R:3:initial_magmoms:R:1 pbc="T T T"
Si      -1.26395196       1.40752116      -1.28864760       0.00000000
Si      -1.26395196      -1.30747884       1.42635240       0.00000000
Si       1.45104804       1.40752116       1.42635240       0.00000000
Si      -2.50036296      -2.59904778       0.05073792       0.00000000
Si       0.08058120      -2.38765788      -2.86990704       0.00000000
Si      -2.62145196       2.76502116       0.06885240       0.00000000
Si      -2.62145196       0.05002116       2.78385240       0.00000000
Si       0.09354804       2.76502116      -2.64614760       0.00000000
Si       0.09354804      -2.66497884       2.78385240       0.00000000
Si      -2.73963048      -0.00706986      -2.79976230       0.00000000
