10
Lattice="16.28999089631971 0.0 0.0 0.0 16.28999089631971 0.0 0.0 0.0 34.48637585096406" Properties=species:S:1:pos:R:3:initial_magmoms:R:1 pbc="T T T"
Si       0.64202148      -2.20041152      -0.48408553       0.00000000
Si       1.98943254       1.43257518      -0.09031987       0.00000000
Si      -1.39693266      -0.19909638      -2.14557107       0.00000000
Si      -1.34508159      -0.03885165       2.21154355       0.00000000
Si       1.47141054       2.18507544      -2.33300463       0.00000000
Si      -2.57333130      -2.02514902       1.67072790       0.00000000
Si      -1.10789919      -3.51429776       0.51481291       0.00000000
Si      -3.49202214       1.08818829      -0.79801518       0.00000000
Si       2.37557070      -2.81258972       0.93206380       0.00000000
Si       0.19657143       0.67917897      -3.76039652       0.00000000
