10
Lattice="16.28999089631971 0.0 0.0 0.0 16.28999089631971 0.0 0.0 0.0 34.48637585096406" Properties=species:S:1:pos:R:3:initial_magmoms:R:1 pbc="T T T"
Si       2.01743505      -1.28161575      -0.31948196       0.00000000
Si      -0.51802200       0.75250026      -2.24268476       0.00000000
Si      -1.98943254      -1.43257518       0.09031987       0.00000000
Si       1.33138170       0.76232313       2.18540286       0.00000000
Si      -1.13287176       2.65018752      -0.94251318       0.00000000
Si       0.60403320      -1.16967087       3.27996655       0.00000000
Si       1.86803946      -2.52256189       1.73332071       0.00000000
Si      -1.34741106      -3.63298670      -0.39376566       0.00000000
Si       4.02514497       0.13146030      -0.12611675       0.00000000
Si       1.05665085       3.91904820      -0.66400105       0.00000000
