10
Lattice="16.28999089631971 0.0 0.0 0.0 16.28999089631971 0.0 0.0 0.0 34.48637585096406" Properties=species:S:1:pos:R:3:initial_magmoms:R:1 pbc="T T T"
Si      -1.57767021      -0.75602104      -1.63982809       0.00000000
Si      -0.11241729       2.30391604      -0.84567538       0.00000000
Si       0.22773420      -0.48943519       2.41377177       0.00000000
Si       1.51169571      -1.64200156      -1.09966768       0.00000000
Si       3.30664194       0.91017133       0.88981797       0.00000000
Si      -0.05975172      -3.60001069      -0.72749051       0.00000000
Si      -2.29578228      -2.83687306      -0.44718509       0.00000000
Si       3.24366480      -1.74143572       0.57371567       0.00000000
Si      -0.31081320      -0.88122598      -3.77467389       0.00000000
Si      -1.33633386       2.22670144      -2.90547879       0.00000000
