10
Lattice="16.28999089631971 0.0 0.0 0.0 16.28999089631971 0.0 0.0 0.0 34.48637585096406" Properties=species:S:1:pos:R:3:initial_magmoms:R:1 pbc="T T T"
Si       1.35783666       1.35666378      -1.35710862       0.00000000
Si      -1.35685926      -1.35871632      -1.35728105       0.00000000
Si      -1.35912357       1.35905841       1.35500495       0.00000000
Si       1.35786924      -1.35971001       1.36221261       0.00000000
Si      -2.69983292      -0.00325800       2.72259744       0.00000000
Si      -0.02516805       2.71707426       2.70945812       0.00000000
Si      -2.71467148       2.71228500      -0.00068973       0.00000000
Si       0.00026064       2.71437012      -2.71480351       0.00000000
Si      -2.71472361      -0.00099369      -2.71497594       0.00000000
Si       2.71565703       2.71430496       0.00037935       0.00000000
