10
Lattice="16.28999089631971 0.0 0.0 0.0 16.28999089631971 0.0 0.0 0.0 34.48637585096406" Properties=species:S:1:pos:R:3:initial_magmoms:R:1 pbc="T T T"
Si       1.35790182      -1.35671265      -1.36248850       0.00000000
Si      -1.35786924       1.35971001      -1.36221261       0.00000000
Si       1.36604682       1.35203742       1.37686933       0.00000000
Si      -1.35843939      -1.35446463       1.38555990       0.00000000
Si      -0.12235419       2.66976810       2.68266219       0.00000000
Si       2.71464705      -2.71080261      -0.00241405       0.00000000
Si      -2.71547784      -2.71067229       0.00075870       0.00000000
Si       2.71757925       2.71482624      -0.00010346       0.00000000
Si       0.00024435      -2.71353933      -2.71949366       0.00000000
Si      -2.71472850       0.00099369      -2.71949366       0.00000000
