10
Lattice="16.28999089631971 0.0 0.0 0.0 16.28999089631971 0.0 0.0 0.0 34.48637585096406" Properties=species:S:1:pos:R:3:initial_magmoms:R:1 pbc="T T T"
Si       0.61484976      -1.89768726      -1.30017158       0.00000000
Si      -1.11547404       1.30899924       1.67628021       0.00000000
Si       2.18952261       1.26886068       0.27851213       0.00000000
Si      -2.03033673       0.84546729      -1.38735319       0.00000000
Si       1.13287176      -2.65018752       0.94251318       0.00000000
Si       0.61010937       3.07861452       0.36659038       0.00000000
Si       2.09561076      -0.74505573      -2.77322346       0.00000000
Si      -0.72036009       1.95623352      -2.98579760       0.00000000
Si       3.73818033       0.35745147      -1.44053121       0.00000000
Si      -3.52953801       0.90772767       1.92344420       0.00000000
