10
Lattice="16.28999089631971 0.0 0.0 0.0 16.28999089631971 0.0 0.0 0.0 34.48637585096406" Properties=species:S:1:pos:R:3:initial_magmoms:R:1 pbc="T T T"
Si       2.18209437      -0.83810421       0.02620966       0.00000000
Si      -2.12338521      -0.41493888       1.11580731       0.00000000
Si       0.52346286       1.96563285       1.37417939       0.00000000
Si      -0.66432249       0.37480032      -2.39766662       0.00000000
Si      -3.08047158       1.30706073      -0.17077663       0.00000000
Si      -1.48413303       2.98572894       0.44349504       0.00000000
Si       3.24664587       0.73409256      -1.43849651       0.00000000
Si      -3.07838646      -0.02647125      -2.15050263       0.00000000
Si       3.52008981      -0.65862099       1.93672146       0.00000000
Si      -2.27426319       0.32651676       3.38080477       0.00000000
