10
Lattice="16.28999089631971 0.0 0.0 0.0 16.28999089631971 0.0 0.0 0.0 34.48637585096406" Properties=species:S:1:pos:R:3:initial_magmoms:R:1 pbc="T T T"
Si       1.35716877       1.35772263      -1.35769489       0.00000000
Si      -1.35782037      -1.35764118      -1.35748797       0.00000000
Si      -1.35985662       1.35847197       1.36124699       0.00000000
Si       1.35979146      -1.35918873       1.36172980       0.00000000
Si       0.01239669       2.72583828       2.70011231       0.00000000
Si      -0.00011403       2.71454931      -2.71459659       0.00000000
Si      -2.71523349       2.71450044      -0.00048281       0.00000000
Si      -2.71565703      -2.71430496      -0.00037935       0.00000000
Si       2.71531494      -0.00026064      -2.71494146       0.00000000
Si      -0.00001629      -2.71542897      -2.71501043       0.00000000
