10
Lattice="16.28999089631971 0.0 0.0 0.0 16.28999089631971 0.0 0.0 0.0 34.48637585096406" Properties=species:S:1:pos:R:3:initial_magmoms:R:1 pbc="T T T"
Si       1.26068310      -1.40701617       1.33541668       0.00000000
Si      -1.33395552      -1.35801585      -1.35445317       0.00000000
Si       1.38096846       1.35570267      -1.34783178       0.00000000
Si      -1.37261169       1.37182977       1.39983726       0.00000000
Si       2.01289014       0.51318387       2.52592152       0.00000000
Si       0.46133280       2.62264113       2.49029708       0.00000000
Si      -2.67466487      -2.72033226       0.01313932       0.00000000
Si      -2.68950343      -0.00478926      -2.71014785       0.00000000
Si      -2.69264415       2.71572219       0.00337967       0.00000000
Si       0.02559159       2.71173114      -2.70956158       0.00000000
