10
Lattice="16.28999089631971 0.0 0.0 0.0 16.28999089631971 0.0 0.0 0.0 34.48637585096406" Properties=species:S:1:pos:R:3:initial_magmoms:R:1 pbc="T T T"
Si      -2.19238965      -0.10432116       0.75207930       0.00000000
Si       0.13453911      -2.28131676      -0.48949989       0.00000000
Si       0.02591739       0.63910557      -2.25037523       0.00000000
Si       1.43102763       1.68055785       0.79073855       0.00000000
Si       2.44332081       0.67574178      -2.15415819       0.00000000
Si       1.17488367       1.31691618       3.06496151       0.00000000
Si       2.30257521      -2.14125534      -1.81339811       0.00000000
Si       3.55853421       1.06807014      -0.11249462       0.00000000
Si      -3.44635801       1.17437868      -0.87712697       0.00000000
Si       0.82603332       3.65001885      -0.41380226       0.00000000
