10
Lattice="16.28999089631971 0.0 0.0 0.0 16.28999089631971 0.0 0.0 0.0 34.48637585096406" Properties=species:S:1:pos:R:3:initial_magmoms:R:1 pbc="T T T"
Si      -1.03231359      -1.05886629      -1.85257466       0.00000000
Si       0.75870675      -1.87147665       1.28717021       0.00000000
Si      -1.98110835       0.53564778       1.23678559       0.00000000
Si       1.47818718       1.35294966      -1.33693408       0.00000000
Si      -3.36085669      -1.33154460       0.54047078       0.00000000
Si      -0.93602340      -3.55788261       0.98593155       0.00000000
Si      -2.76475509       0.29232405      -2.69573253       0.00000000
Si       0.54286425      -1.41532407       3.59065449       0.00000000
Si      -1.72789659      -3.27134151      -1.23657867       0.00000000
Si      -2.78448228       2.66736762       0.66748418       0.00000000
