10
Lattice="16.28999089631971 0.0 0.0 0.0 16.28999089631971 0.0 0.0 0.0 34.48637585096406" Properties=species:S:1:pos:R:3:initial_magmoms:R:1 pbc="T T T"
Si       0.98557758       1.57088054      -1.41459744       0.00000000
Si      -0.67681692       0.97033340       2.05814806       0.00000000
Si      -1.60906104      -1.14444369      -1.33945159       0.00000000
Si       2.19739068      -0.83250045       1.12615323       0.00000000
Si       1.33089300       2.38340945       2.25151328       0.00000000
Si       2.31790410      -2.76049104      -0.16291373       0.00000000
Si       2.36576412       0.12032608      -2.85095580       0.00000000
Si       1.64289537       3.40304942       0.08483653       0.00000000
Si      -0.36536841      -2.58364680      -2.86788862       0.00000000
Si      -2.92239342      -2.59570140       0.07466305       0.00000000
