10
Lattice="16.28999089631971 0.0 0.0 0.0 16.28999089631971 0.0 0.0 0.0 34.48637585096406" Properties=species:S:1:pos:R:3:initial_magmoms:R:1 pbc="T T T"
Si       0.58057560       1.02934881      -2.04638820       0.00000000
Si       1.91497095      -1.34403903       0.37955726       0.00000000
Si      -1.94499342      -1.36980981      -0.08290529       0.00000000
Si       0.81169812       1.10519505       2.16115892       0.00000000
Si       3.03310026       1.25480241      -1.62486099       0.00000000
Si      -1.68752997       2.17150587      -2.53540528       0.00000000
Si      -3.84347889       0.04906548      -0.30316990       0.00000000
Si       3.50412561      -1.04049117      -1.29989569       0.00000000
Si      -2.60571582      -2.10231084       2.12843133       0.00000000
Si      -2.05206759      -2.72075906      -2.04321545       0.00000000
