10
Lattice="16.28999089631971 0.0 0.0 0.0 16.28999089631971 0.0 0.0 0.0 34.48637585096406" Properties=species:S:1:pos:R:3:initial_magmoms:R:1 pbc="T T T"
Si       1.34043894       1.35119034       1.37477255       0.00000000
Si      -1.30867344       1.32450732      -1.44109679       0.00000000
Si      -1.37463165      -1.36306575       1.36742695       0.00000000
Si       1.37863899      -1.34980569      -1.44875966       0.00000000
Si      -2.10520557      -0.63154701      -2.79009563       0.00000000
Si      -0.22747356      -2.49222339      -2.76795536       0.00000000
Si       2.72396493       2.67656103       0.00796981       0.00000000
Si       2.70013266      -2.71661814       0.00330380       0.00000000
Si      -2.73116511       2.69022834      -0.00075870       0.00000000
Si       2.70016524      -0.00330687       2.73129490       0.00000000
