10
Lattice="16.28999089631971 0.0 0.0 0.0 16.28999089631971 0.0 0.0 0.0 34.48637585096406" Properties=species:S:1:pos:R:3:initial_magmoms:R:1 pbc="T T T"
Si       1.35617508       1.35583299       1.35641889       0.00000000
Si      -1.35972630       1.35449721      -1.35652235       0.00000000
Si       1.35454608      -1.35749457      -1.36024688       0.00000000
Si      -1.35827649      -1.35891180       1.35628095       0.00000000
Si       0.02379969       2.67986790      -2.72332510       0.00000000
Si      -0.00071676       2.71313208       2.71380341       0.00000000
Si       2.71378368      -0.00180819       2.71383789       0.00000000
Si      -2.71428867       2.71505430      -0.00155189       0.00000000
Si      -2.71609686      -0.00169416       2.71363097       0.00000000
Si      -0.00128691      -2.71616202       2.71359649       0.00000000
