10
Lattice="16.28999089631971 0.0 0.0 0.0 16.28999089631971 0.0 0.0 0.0 34.48637585096406" Properties=species:S:1:pos:R:3:initial_magmoms:R:1 pbc="T T T"
Si       1.05099822       1.59602904      -1.39438841       0.00000000
Si      -1.64256957      -1.10250720      -1.33269225       0.00000000
Si      -1.54865772       0.91140921       1.71904334       0.00000000
Si       1.73183877      -1.85653872       0.09025090       0.00000000
Si       1.79673813       1.77701094       1.64427683       0.00000000
Si       1.78694784      -0.15223005       2.91030688       0.00000000
Si      -0.28132830      -2.42439183      -2.85937048       0.00000000
Si       2.44547109       0.29598930      -2.86461241       0.00000000
Si       3.00325698       2.30317794      -0.36679730       0.00000000
Si      -3.12333057      -2.25513873       0.14035963       0.00000000
