10
Lattice="16.28999089631971 0.0 0.0 0.0 16.28999089631971 0.0 0.0 0.0 34.48637585096406" Properties=species:S:1:pos:R:3:initial_magmoms:R:1 pbc="T T T"
Si      -0.73331064       1.98395910       0.97224045       0.00000000
Si      -0.72734850      -1.93199400       1.09456369       0.00000000
Si      -1.33138170      -0.76232313      -2.18540286       0.00000000
Si       2.63033001       0.59259762      -0.01027695       0.00000000
Si       0.68605335      -2.04393888      -2.50488482       0.00000000
Si       0.53665776      -3.28488502      -0.45208215       0.00000000
Si       2.44003023       0.71750934       2.40766768       0.00000000
Si       2.69376327      -0.63086283      -2.31151961       0.00000000
Si       0.33124086       3.55615587      -0.49246572       0.00000000
Si       0.60468480       2.16344232       2.88275225       0.00000000
