10
Lattice="16.28999089631971 0.0 0.0 0.0 16.28999089631971 0.0 0.0 0.0 34.48637585096406" Properties=species:S:1:pos:R:3:initial_magmoms:R:1 pbc="T T T"
Si      -0.72251037      -1.03972554       1.95706844       0.00000000
Si      -1.33799544      -0.17948322      -1.91051180       0.00000000
Si       0.70143111       2.27587590      -0.05224689       0.00000000
Si       1.83534543      -1.44593298      -0.47508458       0.00000000
Si      -0.60468480      -2.16344232      -2.88275225       0.00000000
Si       2.61553869       2.12962428      -1.42090845       0.00000000
Si      -0.27344394       1.39271355      -3.37521798       0.00000000
Si       1.23224076      -1.13551074       3.27555230       0.00000000
Si       3.70727820      -0.58412682       0.66858774       0.00000000
Si      -2.52929943       0.06191829       2.88806316       0.00000000
