10
Lattice="16.28999089631971 0.0 0.0 0.0 16.28999089631971 0.0 0.0 0.0 34.48637585096406" Properties=species:S:1:pos:R:3:initial_magmoms:R:1 pbc="T T T"
Si      -1.80678906       1.10164383       0.93099472       0.00000000
Si       0.72251037       1.03972554      -1.95706844       0.00000000
Si       1.95475113      -0.09578520       1.31848386       0.00000000
Si      -1.01687067      -2.13016185      -0.25364744       0.00000000
Si       2.49820182      -2.33569278       0.93061537       0.00000000
Si       2.55785580      -0.40620744      -2.43215302       0.00000000
Si      -1.09745730      -2.81733921       2.00221113       0.00000000
Si      -1.86136056       3.26930526      -0.09290635       0.00000000
Si      -3.79527678       0.10691127       0.09031987       0.00000000
Si       0.35350929      -3.42366930      -1.68038409       0.00000000
