10
Lattice="16.28999089631971 0.0 0.0 0.0 16.28999089631971 0.0 0.0 0.0 34.48637585096406" Properties=species:S:1:pos:R:3:initial_magmoms:R:1 pbc="T T T"
Si      -1.34584722      -1.36187658      -1.37921440       0.00000000
Si       1.36909305       1.35387819      -1.38173191       0.00000000
Si       1.32375798      -1.40968773       1.45442923       0.00000000
Si      -1.46129445       1.35444834       1.39983726       0.00000000
Si      -2.69324199       2.72315043      -0.04083189       0.00000000
Si      -2.69737965      -2.72466540      -0.00224162       0.00000000
Si       2.72201013       2.70345582      -0.00872506       0.00000000
Si       2.71823085      -2.70972747      -0.01579477       0.00000000
Si      -2.70563868      -0.00268785      -2.74094420       0.00000000
Si       0.00928530       2.71353933      -2.74039242       0.00000000
