10
Lattice="16.28999089631971 0.0 0.0 0.0 16.28999089631971 0.0 0.0 0.0 34.48637585096406" Properties=species:S:1:pos:R:3:initial_magmoms:R:1 pbc="T T T"
Si       0.27039771      -0.10912671      -2.32786616       0.00000000
Si       1.63971882      -1.56625092       0.80901634       0.00000000
Si      -2.05833924      -1.21787298       0.29872115       0.00000000
Si       0.53836821       2.06770599       1.18026239       0.00000000
Si       2.13017814      -0.39465783       2.74566883       0.00000000
Si      -1.64558322      -1.61254710       2.72542532       0.00000000
Si       0.66484377      -2.44941327      -2.51395475       0.00000000
Si       2.75944455       1.68368553       1.87126629       0.00000000
Si       0.00070047      -0.17233191       3.74601570       0.00000000
Si       3.55382640      -1.71250254      -0.55964522       0.00000000
