10
Lattice="16.28999089631971 0.0 0.0 0.0 16.28999089631971 0.0 0.0 0.0 34.48637585096406" Properties=species:S:1:pos:R:3:initial_magmoms:R:1 pbc="T T T"
Si      -1.38037322       1.27659843       1.41202476       0.00000000
Si      -1.00479815      -1.73289762      -1.29153122       0.00000000
Si       1.36700467      -1.41305976       1.39417115       0.00000000
Si       0.86958952       1.99684449      -1.12116202       0.00000000
Si      -2.78095779       2.52521064      -0.04714290       0.00000000
Si      -1.00046664       3.47007951      -1.25320732       0.00000000
Si      -0.00530240       2.64070674       2.76744010       0.00000000
Si       2.71803211      -2.72412783      -0.12033338       0.00000000
Si      -2.59359021      -2.85480621      -0.03299658       0.00000000
Si       2.70996856      -0.07571592       2.77709629       0.00000000
