10
Lattice="16.28999089631971 0.0 0.0 0.0 16.28999089631971 0.0 0.0 0.0 34.48637585096406" Properties=species:S:1:pos:R:3:initial_magmoms:R:1 pbc="T T T"
Si       0.08039115       2.14980759      -0.97103343       0.00000000
Si      -0.33300018       0.32879736       2.32769373       0.00000000
Si      -1.82289987      -1.42190523      -0.58833790       0.00000000
Si       1.96138116      -1.20291876      -0.68079593       0.00000000
Si       1.30660461      -1.17159309       2.97531374       0.00000000
Si      -3.29642811      -1.22178258       1.18398692       0.00000000
Si       0.76145976      -3.17987316       1.78170512       0.00000000
Si      -1.21855716      -3.49081668       0.45559977       0.00000000
Si       1.47062862      -2.13806250      -2.80333009       0.00000000
Si       3.74165010       0.31944690      -0.78263425       0.00000000
