10
Lattice="16.28999089631971 0.0 0.0 0.0 16.28999089631971 0.0 0.0 0.0 34.48637585096406" Properties=species:S:1:pos:R:3:initial_magmoms:R:1 pbc="T T T"
Si      -0.12051342       1.92799059       1.28906696       0.00000000
Si      -1.41841917      -1.25509563      -1.34638335       0.00000000
Si       1.39225743       1.39079133      -1.32162212       0.00000000
Si      -0.04046436      -1.58754195       1.78384327       0.00000000
Si      -2.31790410       2.76049104       0.16291373       0.00000000
Si       2.62697427       2.58210739       0.29568635       0.00000000
Si       0.04240287      -2.56073913      -2.70004333       0.00000000
Si      -2.81667132      -2.55883320       0.09807931       0.00000000
Si      -2.68327251       0.17684424      -2.70497489       0.00000000
Si       2.77342137       0.14211396      -2.70928569       0.00000000
