10
Lattice="16.28999089631971 0.0 0.0 0.0 16.28999089631971 0.0 0.0 0.0 34.48637585096406" Properties=species:S:1:pos:R:3:initial_magmoms:R:1 pbc="T T T"
Si       1.13801940       0.01386279      -2.00914289       0.00000000
Si      -2.10168693       0.72974313      -0.67834739       0.00000000
Si      -0.08039115      -2.14980759       0.97103343       0.00000000
Si       0.77032152       2.03800932       1.02497015       0.00000000
Si       1.06969914       2.32298658      -2.37569879       0.00000000
Si      -1.31160564       2.56748319      -2.00317675       0.00000000
Si       1.89653067       1.11926961       2.85326639       0.00000000
Si      -2.94243012       2.02000887       1.21333484       0.00000000
Si      -0.41339133      -1.82101023       3.29872715       0.00000000
Si       1.88099001      -3.35272635       0.29023750       0.00000000
