10
Lattice="16.28999089631971 0.0 0.0 0.0 16.28999089631971 0.0 0.0 0.0 34.48637585096406" Properties=species:S:1:pos:R:3:initial_magmoms:R:1 pbc="T T T"
Si       1.28313072      -1.42195993       1.36346791       0.00000000
Si      -1.43133714       1.30682290       1.34447970       0.00000000
Si       1.28317959       1.42111354      -1.44171206       0.00000000
Si      -1.56753783      -1.21457751      -1.42729675       0.00000000
Si       2.64264525      -0.05259552       2.71550014       0.00000000
Si       2.76553701       2.59591576      -0.09493760       0.00000000
Si      -0.07675848       2.66263960       2.71222393       0.00000000
Si      -2.75283081       2.67363535      -0.10758376       0.00000000
Si       2.33869014      -3.06882490       0.08562282       0.00000000
Si      -0.08351883      -2.76045520       2.71756932       0.00000000
