10
Lattice="16.28999089631971 0.0 0.0 0.0 16.28999089631971 0.0 0.0 0.0 34.48637585096406" Properties=species:S:1:pos:R:3:initial_magmoms:R:1 pbc="T T T"
Si       1.33742529       1.33863075       1.37500706       0.00000000
Si      -1.35886293       1.35270531      -1.35500495       0.00000000
Si       1.35415512      -1.35959435      -1.35541879       0.00000000
Si      -1.35534429      -1.35674034       1.38904302       0.00000000
Si       2.51195058      -0.14587695       2.82747056       0.00000000
Si      -0.00117288       2.71235016      -2.71273433       0.00000000
Si      -2.71586880       2.71090035       0.00344864       0.00000000
Si       2.71415800      -0.00259011      -2.71287227       0.00000000
Si       2.71518462       2.71342530       0.00734560       0.00000000
Si      -2.71624347      -0.00200367      -2.71297573       0.00000000
