10
Lattice="16.28999089631971 0.0 0.0 0.0 16.28999089631971 0.0 0.0 0.0 34.48637585096406" Properties=species:S:1:pos:R:3:initial_magmoms:R:1 pbc="T T T"
Si       1.35534429       1.35674034      -1.38904302       0.00000000
Si      -1.36137159      -1.35980860      -1.38569784       0.00000000
Si       1.34439741      -1.49002579       1.36641995       0.00000000
Si      -1.38018654       1.45055445       1.43635836       0.00000000
Si      -2.36576412      -0.12032608       2.85095580       0.00000000
Si       2.69276958       2.69537109      -0.01403596       0.00000000
Si      -2.73113253      -2.70397288      -0.01693282       0.00000000
Si      -2.73603582       2.71487022      -0.01382904       0.00000000
Si      -0.00351864       2.70944565      -2.74404797       0.00000000
Si       2.70949941      -0.00285401      -2.74446181       0.00000000
