10
Lattice="16.28999089631971 0.0 0.0 0.0 16.28999089631971 0.0 0.0 0.0 34.48637585096406" Properties=species:S:1:pos:R:3:initial_magmoms:R:1 pbc="T T T"
Si      -1.99386342       1.07782785       0.67003617       0.00000000
Si       0.79150245      -1.49855620       1.65486416       0.00000000
Si      -0.92825307      -1.58994961      -1.55706074       0.00000000
Si       1.90758248       1.51404147      -0.52129635       0.00000000
Si       0.92315660      -0.93538646      -3.01869762       0.00000000
Si       2.65133501      -1.81236904      -1.59996182       0.00000000
Si       1.87182593      -3.12543917       0.29972126       0.00000000
Si      -2.56220523       2.39358744      -1.19567781       0.00000000
Si      -1.04185953      -2.04148628       3.07708309       0.00000000
Si      -1.64211345       2.49119712       2.51861041       0.00000000
