10
Lattice="16.28999089631971 0.0 0.0 0.0 16.28999089631971 0.0 0.0 0.0 34.48637585096406" Properties=species:S:1:pos:R:3:initial_magmoms:R:1 pbc="T T T"
Si      -1.33742529      -1.33863075      -1.37500706       0.00000000
Si       1.37775933       1.37479455      -1.36766146       0.00000000
Si       1.17452529      -1.48450770       1.45246350       0.00000000
Si      -1.42547274       1.31654151       1.40638968       0.00000000
Si       2.13789050       0.29137923       2.69221492       0.00000000
Si       0.41948379       2.09355822       2.76094631       0.00000000
Si      -2.69276958      -2.69537109       0.01403596       0.00000000
Si      -2.69628822       0.01407456      -2.73001201       0.00000000
Si       0.01672983      -2.69822510      -2.73042585       0.00000000
Si       2.73033825      -2.70313979       0.01586374       0.00000000
