10
Lattice="16.28999089631971 0.0 0.0 0.0 16.28999089631971 0.0 0.0 0.0 34.48637585096406" Properties=species:S:1:pos:R:3:initial_magmoms:R:1 pbc="T T T"
Si       1.41836771      -1.22378625      -1.39293999       0.00000000
Si       0.93119246       1.79918163       1.23123328       0.00000000
Si      -1.31334867       1.47388662      -1.40038905       0.00000000
Si      -0.91077390      -1.85958495       1.37597268       0.00000000
Si       2.71035368      -2.55098142       0.09673434       0.00000000
Si      -3.47447781       0.79392573       1.10780647       0.00000000
Si       0.04750164      -2.57834862      -2.75263509       0.00000000
Si      -2.14417125       1.08383886       2.94531058       0.00000000
Si      -2.75573043      -2.63660166       0.02141605       0.00000000
Si       0.81499752       0.34010262       3.71035676       0.00000000
