10
Lattice="16.28999089631971 0.0 0.0 0.0 16.28999089631971 0.0 0.0 0.0 34.48637585096406" Properties=species:S:1:pos:R:3:initial_magmoms:R:1 pbc="T T T"
Si      -1.79043390       1.49579667      -0.14287713       0.00000000
Si       0.11284083      -0.94115475       2.14846793       0.00000000
Si      -0.35174997      -1.41336927      -1.84857424       0.00000000
Si       1.93507511       1.31525460      -0.51812360       0.00000000
Si       1.03948119       2.78669772      -2.19230014       0.00000000
Si      -0.97274106       3.39754014      -1.16015682       0.00000000
Si       0.99031797       0.66997512       3.60020722       0.00000000
Si      -0.92009178      -0.09760968      -3.71428821       0.00000000
Si      -2.36727909       2.25707724       1.99258942       0.00000000
Si       1.33947783      -2.90545671       2.12950041       0.00000000
