10
Lattice="16.28999089631971 0.0 0.0 0.0 16.28999089631971 0.0 0.0 0.0 34.48637585096406" Properties=species:S:1:pos:R:3:initial_magmoms:R:1 pbc="T T T"
Si       1.35799956      -1.35461124       1.35614300       0.00000000
Si      -1.35741312      -1.35624024      -1.35707413       0.00000000
Si       1.35746199       1.35878148      -1.35686722       0.00000000
Si      -1.35545832       1.35858600       1.35972959       0.00000000
Si       2.71261080      -2.71340901       0.00072421       0.00000000
Si       2.71259451      -0.01787013       2.71528632       0.00000000
Si      -0.00052128      -2.71353933      -2.71445865       0.00000000
Si       2.71362078       2.71528236       0.00124151       0.00000000
Si      -2.71487511       0.00175932      -2.71442416       0.00000000
Si       2.71565703       0.00159642      -2.71411378       0.00000000
