10
Lattice="16.28999089631971 0.0 0.0 0.0 16.28999089631971 0.0 0.0 0.0 34.48637585096406" Properties=species:S:1:pos:R:3:initial_magmoms:R:1 pbc="T T T"
Si       1.35459495       1.33674111       1.35914332       0.00000000
Si      -1.35799956       1.35461124      -1.35614300       0.00000000
Si       1.35461124      -1.35879777      -1.35541879       0.00000000
Si      -1.36432008      -1.35040842       1.36952372       0.00000000
Si      -0.05664033       2.56968234       2.75770459       0.00000000
Si      -0.00053757       2.71339272      -2.71301022       0.00000000
Si      -2.71345788       2.71319724       0.00358659       0.00000000
Si       2.71436631      -0.00136836      -2.71332060       0.00000000
Si      -2.71541268      -0.00162900      -2.71321714       0.00000000
Si      -0.00091224      -2.71656927      -2.71318265       0.00000000
