10
Lattice="16.28999089631971 0.0 0.0 0.0 16.28999089631971 0.0 0.0 0.0 34.48637585096406" Properties=species:S:1:pos:R:3:initial_magmoms:R:1 pbc="T T T"
Si      -0.71996913       1.94790674      -1.07031976       0.00000000
Si       2.11393701       0.25332579       1.00665787       0.00000000
Si      -1.25995005      -0.28284327       1.97334602       0.00000000
Si      -0.09181044      -1.72882512      -1.67021060       0.00000000
Si      -1.84699278       0.91378170      -2.91041034       0.00000000
Si      -2.24663535      -1.37968155      -2.57627166       0.00000000
Si      -1.19162979      -2.59196706       2.33990191       0.00000000
Si       1.16193312       3.37263992      -1.40038905       0.00000000
Si       2.56445325      -1.54768032       2.48126164       0.00000000
Si       1.83171276      -1.59477471      -3.10732766       0.00000000
