10
Lattice="16.28999089631971 0.0 0.0 0.0 16.28999089631971 0.0 0.0 0.0 34.48637585096406" Properties=species:S:1:pos:R:3:initial_magmoms:R:1 pbc="T T T"
Si      -1.84262543       1.40059791       0.28920291       0.00000000
Si       1.01362896       0.25602993       2.10187681       0.00000000
Si       1.27944918       1.11654918      -1.65131206       0.00000000
Si       0.46333647      -2.10255030      -1.02969479       0.00000000
Si       1.77409503      -1.00185129      -2.74366862       0.00000000
Si       1.18092726      -1.99300005       2.73101212       0.00000000
Si      -0.91424367       2.92113909       1.89213055       0.00000000
Si       1.95510951      -3.00700531       0.70572959       0.00000000
Si       2.81587311       1.81323990       1.56326829       0.00000000
Si       0.00288333       3.03450120      -2.25461705       0.00000000
