10
Lattice="16.28999089631971 0.0 0.0 0.0 16.28999089631971 0.0 0.0 0.0 34.48637585096406" Properties=species:S:1:pos:R:3:initial_magmoms:R:1 pbc="T T T"
Si       1.35730500       1.35711990       1.35690170       0.00000000
Si       1.35716816      -1.35708732      -1.35728105       0.00000000
Si      -1.35708697       1.35759231      -1.35755694       0.00000000
Si      -1.36000288      -1.35700424       1.35745348       0.00000000
Si      -2.71415800       0.00259011       2.71287227       0.00000000
Si      -0.00084899      -2.71343280      -2.71445865       0.00000000
Si       2.71416589      -0.00074934      -2.71476902       0.00000000
Si      -2.71559152       0.00029322      -2.71380341       0.00000000
Si       2.71486636       2.71511946       0.00003449       0.00000000
Si      -2.71511911      -2.71491641       0.00020692       0.00000000
