10
Lattice="16.28999089631971 0.0 0.0 0.0 16.28999089631971 0.0 0.0 0.0 34.48637585096406" Properties=species:S:1:pos:R:3:initial_magmoms:R:1 pbc="T T T"
Si       1.35710647       1.35597960       1.35662581       0.00000000
Si      -1.35670884       1.35757602      -1.35693619       0.00000000
Si       1.35705434      -1.35729909      -1.35766040       0.00000000
Si      -1.35975507      -1.35742941       1.35790181       0.00000000
Si       2.71265438       0.00275301       2.71232049       0.00000000
Si       0.00498855       2.71355562       2.71390686       0.00000000
Si      -2.71436631       0.00136836       2.71332060       0.00000000
Si      -2.71257441       0.00047241      -2.71528632       0.00000000
Si      -0.00162519      -2.71409319      -2.71411378       0.00000000
Si      -0.00117120       2.71656927      -2.71207909       0.00000000
