10
Lattice="16.28999089631971 0.0 0.0 0.0 16.28999089631971 0.0 0.0 0.0 34.48637585096406" Properties=species:S:1:pos:R:3:initial_magmoms:R:1 pbc="T T T"
Si      -1.35706126       1.35663120      -1.35717759       0.00000000
Si       1.35752715      -1.35697329      -1.35762592       0.00000000
Si       1.35769005       1.35746199       1.35707413       0.00000000
Si      -1.35740497      -1.35905841       1.35648787       0.00000000
Si      -2.70952289      -0.00148239       2.71376892       0.00000000
Si      -0.00185706      -2.71228500       2.71218254       0.00000000
Si      -2.71568264       0.00153126      -2.71221703       0.00000000
Si      -2.71421021       2.71450044       0.00034486       0.00000000
Si       0.00286704       2.71394658      -2.71480351       0.00000000
Si       2.71489140       0.00112401      -2.71387238       0.00000000
