10
Lattice="16.28999089631971 0.0 0.0 0.0 16.28999089631971 0.0 0.0 0.0 34.48637585096406" Properties=species:S:1:pos:R:3:initial_magmoms:R:1 pbc="T T T"
Si      -0.66541296       0.64254276      -2.13212138       0.00000000
Si       2.11555786      -0.85322133      -0.51601993       0.00000000
Si      -1.03667835      -2.11212882       0.21064290       0.00000000
Si       0.07966624       2.11848192       1.32482936       0.00000000
Si       0.45470277       2.66802507      -2.37166388       0.00000000
Si      -3.04890060      -1.50128640       1.24278622       0.00000000
Si       2.47463833       2.21086251       1.64320775       0.00000000
Si       0.38810273      -0.88767468      -3.62396835       0.00000000
Si       3.71189642       0.82544688       0.09825174       0.00000000
Si      -2.05929939       2.08850832       2.46888103       0.00000000
