10
Lattice="16.28999089631971 0.0 0.0 0.0 16.28999089631971 0.0 0.0 0.0 34.48637585096406" Properties=species:S:1:pos:R:3:initial_magmoms:R:1 pbc="T T T"
Si       1.33424874      -1.33540533       1.61379776       0.00000000
Si      -1.41014385      -1.22803794      -1.66577362       0.00000000
Si      -1.34322453       1.36503376       1.62058468       0.00000000
Si       1.96279839       1.03638609      -1.26800754       0.00000000
Si      -2.58551622      -2.64077190       0.03072738       0.00000000
Si      -2.92835719       0.41818059      -2.36670960       0.00000000
Si       2.85363333      -2.54909178       0.23357635       0.00000000
Si      -2.74368397       2.71935390       0.32977270       0.00000000
Si       2.73611727       2.75274351       0.21398463       0.00000000
Si       3.74816610      -0.72772317      -1.14561532       0.00000000
