10
Lattice="16.28999089631971 0.0 0.0 0.0 16.28999089631971 0.0 0.0 0.0 34.48637585096406" Properties=species:S:1:pos:R:3:initial_magmoms:R:1 pbc="T T T"
Si      -1.60920506       1.04612751       1.35214258       0.00000000
Si      -1.62455024      -1.15828416      -1.32469141       0.00000000
Si       1.14697238       1.73809366      -1.24351044       0.00000000
Si       1.63539545      -1.32756984       1.38414595       0.00000000
Si      -2.25230168      -0.95765652       2.64503753       0.00000000
Si      -0.22610031      -2.35305792      -2.78043112       0.00000000
Si       2.47972244       0.38903778      -2.76991277       0.00000000
Si       2.92787663      -2.44613898      -0.29351371       0.00000000
Si      -0.71048346       2.62703196       2.82222863       0.00000000
Si      -2.51258330      -3.06600606      -0.12573740       0.00000000
