10
Lattice="16.28999089631971 0.0 0.0 0.0 16.28999089631971 0.0 0.0 0.0 34.385447050020396" Properties=species:S:1:pos:R:3:initial_magmoms:R:1 pbc="T T T"
Si      -0.24568578       2.36972815       0.50780457       0.00000000
Si      -1.40820534      -0.98590338      -1.73515940       0.00000000
Si       2.15301672      -0.49963059      -1.07684965       0.00000000
Si      -0.92574441      -0.54296199       2.22590877       0.00000000
Si       2.04507918       3.07772576       0.51230906       0.00000000
Si       3.23721396       1.64141039      -0.98486852       0.00000000
Si      -0.46183779      -3.12795693      -2.09630995       0.00000000
Si      -1.75846640      -2.75594220       1.97100931       0.00000000
Si      -3.12540917       0.75958641       2.28181954       0.00000000
Si      -0.18096561      -3.97005219       0.26356460       0.00000000
