10
Lattice="16.28999089631971 0.0 0.0 0.0 16.28999089631971 0.0 0.0 0.0 34.385447050020396" Properties=species:S:1:pos:R:3:initial_magmoms:R:1 pbc="T T T"
Si      -1.21528287       1.34390871      -1.44957091       0.00000000
Si      -1.36001952      -1.34542368       1.35325378       0.00000000
Si       1.35426915       1.36821339       1.34943699       0.00000000
Si       1.11964428      -1.48141260      -1.46819408       0.00000000
Si       0.60699798       2.19592458      -2.73832241       0.00000000
Si       2.23480881       0.26753067      -2.82645236       0.00000000
Si      -2.20120254      -0.30952629      -2.87727408       0.00000000
Si      -0.00509877      -2.70163134       2.70645942       0.00000000
Si      -0.73581930      -2.32888356      -2.94374118       0.00000000
Si       2.71116099      -2.70316260      -0.04260703       0.00000000
