10
Lattice="16.28999089631971 0.0 0.0 0.0 16.28999089631971 0.0 0.0 0.0 34.385447050020396" Properties=species:S:1:pos:R:3:initial_magmoms:R:1 pbc="T T T"
Si      -1.35694071      -1.35583299      -1.35777891       0.00000000
Si      -1.35716877       1.35746199       1.35729751       0.00000000
Si       1.35793440      -1.35769005       1.35726312       0.00000000
Si       1.35845568       1.35992178      -1.35664419       0.00000000
Si      -2.71186146       0.00037467      -2.71098455       0.00000000
Si      -2.71443528       2.71344159       0.00030947       0.00000000
Si       0.00198738      -2.71466334       2.71356346       0.00000000
Si       0.00242721       2.71401174      -2.71480133       0.00000000
Si      -2.71464705      -2.71492398       0.00010316       0.00000000
Si       2.71520091       2.71494027       0.00027508       0.00000000
