10
Lattice="16.28999089631971 0.0 0.0 0.0 16.28999089631971 0.0 0.0 0.0 34.385447050020396" Properties=species:S:1:pos:R:3:initial_magmoms:R:1 pbc="T T T"
Si       1.35594702       1.35697329      -1.35630033       0.00000000
Si      -1.35887922      -1.35822762      -1.35537192       0.00000000
Si      -1.35668007       1.35378045       1.36338374       0.00000000
Si       1.35314514      -1.35964485       1.36310865       0.00000000
Si       2.71332756      -0.00091224      -2.71390731       0.00000000
Si       2.71360449       2.71443528       0.00130665       0.00000000
Si      -0.00198738       2.71466334      -2.71356346       0.00000000
Si       2.71407690      -2.71545178       0.00137542       0.00000000
Si      -0.00153126      -2.71686738      -2.71301329       0.00000000
Si      -2.71663443      -0.00026064      -2.71346030       0.00000000
