10
Lattice="16.28999089631971 0.0 0.0 0.0 16.28999089631971 0.0 0.0 0.0 34.385447050020396" Properties=species:S:1:pos:R:3:initial_magmoms:R:1 pbc="T T T"
Si      -1.35345465       1.36076886       1.35616279       0.00000000
Si      -1.35555606      -1.35723393      -1.35805399       0.00000000
Si       1.35925389       1.35809730      -1.35832907       0.00000000
Si       1.36172997      -1.36024758       1.36132061       0.00000000
Si       0.00504990       2.71604799       2.68825575       0.00000000
Si      -2.71320050       0.00042354      -2.71414801       0.00000000
Si      -2.71463891      -2.71326240      -0.00044701       0.00000000
Si      -2.71278347       2.71604799      -0.00140980       0.00000000
Si       0.00198738       2.71407690      -2.71531711       0.00000000
Si       0.00177561      -2.71428867      -2.71552343       0.00000000
