10
Lattice="16.28999089631971 0.0 0.0 0.0 16.28999089631971 0.0 0.0 0.0 34.385447050020396" Properties=species:S:1:pos:R:3:initial_magmoms:R:1 pbc="T T T"
Si       2.07084996       0.21963807       1.14864650       0.00000000
Si       0.05900238      -1.54665405      -1.83140432       0.00000000
Si      -0.76227426       1.97754084      -1.17715205       0.00000000
Si      -1.56023991      -0.75748500       1.70524404       0.00000000
Si      -2.76508089       0.78330465      -1.60387569       0.00000000
Si       2.86117560       2.18012328       0.08589489       0.00000000
Si      -0.25397739      -2.16665145       3.03080377       0.00000000
Si      -1.52405982       3.47121981       0.68592128       0.00000000
Si       1.17706653      -3.55061727      -1.44669972       0.00000000
Si      -2.01986226      -2.46480732      -2.51141130       0.00000000
