10
Lattice="16.28999089631971 0.0 0.0 0.0 16.28999089631971 0.0 0.0 0.0 34.385447050020396" Properties=species:S:1:pos:R:3:initial_magmoms:R:1 pbc="T T T"
Si      -1.37085237      -1.86598692      -0.18870744       0.00000000
Si      -1.11806415       2.00396322      -0.38470460       0.00000000
Si       1.50996897       0.05851368       1.85234507       0.00000000
Si      -0.73637316       0.14615388      -2.30437641       0.00000000
Si      -3.17552373      -0.61147773       0.79406357       0.00000000
Si      -3.19692879       1.08580995      -1.06471158       0.00000000
Si       0.15266988      -0.18611325       3.79931894       0.00000000
Si      -0.23135058      -3.74662832       0.77621752       0.00000000
Si       2.01368835      -3.34280248       0.12468170       0.00000000
Si       2.82188412      -1.93214061       1.88418601       0.00000000
