10
Lattice="16.28999089631971 0.0 0.0 0.0 16.28999089631971 0.0 0.0 0.0 34.385447050020396" Properties=species:S:1:pos:R:3:initial_magmoms:R:1 pbc="T T T"
Si       0.30262910       0.09579823       2.31833691       0.00000000
Si      -1.92869269      -1.30056495      -0.34963142       0.00000000
Si       1.66905874      -1.48511436      -0.82298175       0.00000000
Si       0.13918665       2.31974813      -0.66879732       0.00000000
Si      -2.71997944      -0.22325510      -2.27941256       0.00000000
Si       1.40679463       2.20340495       2.61831571       0.00000000
Si       1.69877170      -1.80798216       2.79632927       0.00000000
Si      -1.78957609       0.51603788       3.26146148       0.00000000
Si       3.69866242      -0.71547702       0.20177392       0.00000000
Si       0.34486907       2.31228731      -2.99779372       0.00000000
