10
Lattice="16.28999089631971 0.0 0.0 0.0 16.28999089631971 0.0 0.0 0.0 34.385447050020396" Properties=species:S:1:pos:R:3:initial_magmoms:R:1 pbc="T T T"
Si       1.25845137      -1.88830422       0.70565854       0.00000000
Si       1.33068123       1.37552760      -1.42964453       0.00000000
Si      -1.73327229       1.18571652       1.20593269       0.00000000
Si      -1.49775147      -0.68916474      -1.81190776       0.00000000
Si       0.28885428       1.51342245       2.15345860       0.00000000
Si       0.01606194      -2.12490018      -2.90650031       0.00000000
Si       0.76494582      -3.40653222      -1.08730283       0.00000000
Si       3.46654458      -0.98622918       1.02764404       0.00000000
Si      -3.33473079      -0.43807068       1.90722427       0.00000000
Si      -2.10160548       1.26289854      -3.04851228       0.00000000
