10
Lattice="16.28999089631971 0.0 0.0 0.0 16.28999089631971 0.0 0.0 0.0 34.385447050020396" Properties=species:S:1:pos:R:3:initial_magmoms:R:1 pbc="T T T"
Si      -2.02212657      -0.32770593      -0.94752591       0.00000000
Si       1.22323239       1.94492826      -0.67326743       0.00000000
Si      -0.09728388      -0.56343852       2.33900257       0.00000000
Si      -0.28885428      -1.51342245      -2.15345860       0.00000000
Si       2.82198186       1.52910972       0.97792266       0.00000000
Si       1.80672390       0.78467301       2.98809702       0.00000000
Si      -2.51854803       1.71351252      -1.99287847       0.00000000
Si       1.04182695      -0.13789485      -3.58310313       0.00000000
Si       0.96959709      -3.40172667      -1.44780006       0.00000000
Si      -0.05004288       3.90314916      -0.44322866       0.00000000
