10
Lattice="16.28999089631971 0.0 0.0 0.0 16.28999089631971 0.0 0.0 0.0 34.385447050020396" Properties=species:S:1:pos:R:3:initial_magmoms:R:1 pbc="T T T"
Si       1.36099692       1.34895861      -1.35521031       0.00000000
Si       1.35602847      -1.35408996       1.35815715       0.00000000
Si      -1.36045935       1.35474156       1.35612840       0.00000000
Si      -1.35426915      -1.36821339      -1.34943699       0.00000000
Si      -2.56955202      -0.02430468      -2.79900790       0.00000000
Si       2.71166598      -2.71482624      -0.00587991       0.00000000
Si       2.71428867       2.71345788       0.00226944       0.00000000
Si       2.71277370       0.00092853       2.71507642       0.00000000
Si      -2.71428867      -2.71363707       0.00381679       0.00000000
Si      -0.00242721      -2.71401174       2.71480133       0.00000000
