10
Lattice="16.28999089631971 0.0 0.0 0.0 16.28999089631971 0.0 0.0 0.0 34.385447050020396" Properties=species:S:1:pos:R:3:initial_magmoms:R:1 pbc="T T T"
Si       0.92970288      -1.60055766      -1.49432359       0.00000000
Si       1.81278378       1.56512691       0.02472315       0.00000000
Si      -2.01026745       0.63895896      -1.14084100       0.00000000
Si      -0.93988413      -0.37895427       2.18433674       0.00000000
Si      -2.42901819       2.59397073       0.19861045       0.00000000
Si       3.06812376      -1.78077393      -0.49893312       0.00000000
Si       1.57380948       2.34944154      -2.27456421       0.00000000
Si      -2.57706171       1.40449122       2.19018227       0.00000000
Si      -3.65279792      -0.88865208      -0.34134452       0.00000000
Si       0.18428877      -3.76227324      -0.97169889       0.00000000
