10
Lattice="16.28999089631971 0.0 0.0 0.0 16.28999089631971 0.0 0.0 0.0 34.385447050020396" Properties=species:S:1:pos:R:3:initial_magmoms:R:1 pbc="T T T"
Si       1.24352973      -1.38789171       1.39480862       0.00000000
Si       1.85733693       0.87988806      -1.19235249       0.00000000
Si      -1.48623444       1.33402068       1.35147949       0.00000000
Si      -0.86473836      -1.90913913      -1.33774047       0.00000000
Si       0.59673528       2.11442571      -2.79974173       0.00000000
Si       2.54899404      -2.74291020      -0.04327067       0.00000000
Si       2.59682148      -0.02339244       2.75228837       0.00000000
Si       2.69532711       2.66237244       0.09230435       0.00000000
Si      -0.12272886       2.69588097       2.74620214       0.00000000
Si      -2.68701921      -2.76115500      -0.04898897       0.00000000
