10
Lattice="16.28999089631971 0.0 0.0 0.0 16.28999089631971 0.0 0.0 0.0 34.385447050020396" Properties=species:S:1:pos:R:3:initial_magmoms:R:1 pbc="T T T"
Si       0.74684763      -1.91711634       1.16229409       0.00000000
Si      -0.47300133      -0.53114034      -2.31586257       0.00000000
Si      -1.97781125       0.80715321       1.17513363       0.00000000
Si       1.80188577       1.93404654      -0.14149276       0.00000000
Si       2.08440324      -0.55916239       2.54680770       0.00000000
Si      -0.64860101       2.17471500       2.55045256       0.00000000
Si      -1.20090369       1.61857440      -2.98782335       0.00000000
Si       3.45377322       0.80301555       1.15639011       0.00000000
Si       0.71555454       3.52292427       1.19525944       0.00000000
Si       2.06894403      -3.28566761      -0.48758591       0.00000000
