10
Lattice="16.28999089631971 0.0 0.0 0.0 16.28999089631971 0.0 0.0 0.0 34.385447050020396" Properties=species:S:1:pos:R:3:initial_magmoms:R:1 pbc="T T T"
Si      -1.35314514       1.35964485      -1.36310865       0.00000000
Si       1.36093176      -1.35580693      -1.36173324       0.00000000
Si      -1.35560493      -1.34235627       1.39133912       0.00000000
Si       1.37272572       1.35250983       1.37356184       0.00000000
Si      -2.70863604      -2.71435440       0.00226944       0.00000000
Si      -2.70982521       2.71342530       0.00027508       0.00000000
Si      -2.71202436       0.00141723      -2.71848058       0.00000000
Si       2.71924083      -2.71229219      -0.00209751       0.00000000
Si       0.00268785      -2.71351343      -2.71906513       0.00000000
Si       2.72111418       2.71432125      -0.00206313       0.00000000
