10
Lattice="16.28999089631971 0.0 0.0 0.0 16.28999089631971 0.0 0.0 0.0 34.385447050020396" Properties=species:S:1:pos:R:3:initial_magmoms:R:1 pbc="T T T"
Si      -1.31191515       1.99065429      -0.03184094       0.00000000
Si      -0.80819577      -1.41066187      -1.75950431       0.00000000
Si       0.81930555      -0.50127588       2.19554641       0.00000000
Si       2.28278286       0.06336810      -0.73323568       0.00000000
Si       2.28090951       1.33817463       2.34491687       0.00000000
Si      -2.66921424       1.74602736       1.91513293       0.00000000
Si      -3.05323470      -1.81448771      -1.10796849       0.00000000
Si       0.00019548      -3.52778588      -1.25885192       0.00000000
Si      -2.82188412       1.93214061      -1.88418601       0.00000000
Si       2.08018413      -2.48224481       2.19324258       0.00000000
