10
Lattice="16.28999089631971 0.0 0.0 0.0 16.28999089631971 0.0 0.0 0.0 34.385447050020396" Properties=species:S:1:pos:R:3:initial_magmoms:R:1 pbc="T T T"
Si       1.36187658      -1.35205371       1.36056413       0.00000000
Si      -1.35615879       1.35954711       1.36070167       0.00000000
Si      -1.36014984      -1.35277047      -1.36513396       0.00000000
Si       1.36594908       1.38693060      -1.35973544       0.00000000
Si      -2.48652189       0.14240718      -2.82399238       0.00000000
Si      -2.71332756      -2.71241369       0.00391994       0.00000000
Si       2.71422351       2.71314837       0.00539852       0.00000000
Si       0.02256165      -2.65219282      -2.77477990       0.00000000
Si       0.00118917      -2.71247559       2.71909952       0.00000000
Si      -2.71487511       2.71718829      -0.00158173       0.00000000
