10
Lattice="16.28999089631971 0.0 0.0 0.0 16.28999089631971 0.0 0.0 0.0 34.385447050020396" Properties=species:S:1:pos:R:3:initial_magmoms:R:1 pbc="T T T"
Si       1.86945669       0.87583185      -1.16943630       0.00000000
Si       1.12637205      -1.49517765       1.45885842       0.00000000
Si      -1.03353534      -1.58053725      -1.48589713       0.00000000
Si      -1.58312736       1.21823136       1.43624654       0.00000000
Si      -0.57274011      -0.59588820      -3.49545255       0.00000000
Si       2.50908354      -2.79460000       0.04921248       0.00000000
Si       2.48652189      -0.14240718       2.82399238       0.00000000
Si       1.36936998       0.63283392      -3.46024183       0.00000000
Si       3.45735702      -0.93553470      -1.31173474       0.00000000
Si      -0.22835322       2.57478111       2.82241065       0.00000000
