10
Lattice="16.28999089631971 0.0 0.0 0.0 16.28999089631971 0.0 0.0 0.0 34.385447050020396" Properties=species:S:1:pos:R:3:initial_magmoms:R:1 pbc="T T T"
Si      -2.24031713       0.63091170      -0.30372682       0.00000000
Si       0.72790236      -2.14971474       0.67196078       0.00000000
Si      -0.52478072       1.80594198       1.51509692       0.00000000
Si       1.32289950       0.87809616      -1.84323292       0.00000000
Si       0.96864087      -1.37627694      -2.81830159       0.00000000
Si      -2.08025159       0.63790011       2.84306398       0.00000000
Si       1.20090369      -1.61857440       2.98782335       0.00000000
Si       2.26907157      -2.53203778      -1.20184082       0.00000000
Si      -1.52300327       3.36952134       0.05195644       0.00000000
Si      -0.27316701       2.28561732      -2.92410567       0.00000000
