10
Lattice="16.28999089631971 0.0 0.0 0.0 16.28999089631971 0.0 0.0 0.0 34.385447050020396" Properties=species:S:1:pos:R:3:initial_magmoms:R:1 pbc="T T T"
Si      -1.35749457      -1.35711990       1.35805399       0.00000000
Si       1.35775521       1.35840681       1.35815715       0.00000000
Si       1.35615879      -1.35954711      -1.36070167       0.00000000
Si      -1.35871632       1.35764118      -1.36228340       0.00000000
Si       2.71803537      -2.71160082      -0.00013754       0.00000000
Si      -2.71464705      -2.71507059       0.00140980       0.00000000
Si       0.00042354      -2.71441899       2.71576413       0.00000000
Si       2.71480995       0.00058644       2.71548904       0.00000000
Si      -2.71487511       0.00076563       2.71566097       0.00000000
Si       0.00029322       2.71534752       2.71559220       0.00000000
