10
Lattice="16.28999089631971 0.0 0.0 0.0 16.28999089631971 0.0 0.0 0.0 34.385447050020396" Properties=species:S:1:pos:R:3:initial_magmoms:R:1 pbc="T T T"
Si       2.25474777      -0.63631998      -0.22195818       0.00000000
Si      -0.38130003       0.96322770      -2.13066103       0.00000000
Si      -0.88528005      -2.25476406      -0.01203491       0.00000000
Si      -0.36562905       1.74871521       1.73791024       0.00000000
Si       2.13643350      -1.76098158       1.89126942       0.00000000
Si      -2.50110144       2.25302103       0.64727202       0.00000000
Si      -0.09658341      -2.72025081      -2.20974760       0.00000000
Si       0.19432341      -2.98970370       1.85605870       0.00000000
Si      -1.48584348       2.99745774      -1.36290234       0.00000000
Si       2.16829674      -2.32930710      -1.82377075       0.00000000
