10
Lattice="16.28999089631971 0.0 0.0 0.0 16.28999089631971 0.0 0.0 0.0 34.385447050020396" Properties=species:S:1:pos:R:3:initial_magmoms:R:1 pbc="T T T"
Si      -1.35602847       1.35408996      -1.35815715       0.00000000
Si       1.35674523       1.35501849       1.35691927       0.00000000
Si      -1.35845568      -1.35992178       1.35664419       0.00000000
Si       1.35563751      -1.36073628      -1.36403706       0.00000000
Si       0.00496845       2.70304857      -2.71336746       0.00000000
Si      -2.71029762      -0.01412343      -2.70759414       0.00000000
Si      -2.71648782       2.70883152      -0.00202874       0.00000000
Si      -0.00117288       2.71270854       2.71370100       0.00000000
Si       2.71464705      -0.00302994       2.71383854       0.00000000
Si      -2.71562445      -0.00245979       2.71394170       0.00000000
