10
Lattice="16.28999089631971 0.0 0.0 0.0 16.28999089631971 0.0 0.0 0.0 34.385447050020396" Properties=species:S:1:pos:R:3:initial_magmoms:R:1 pbc="T T T"
Si      -1.35674523      -1.35501849      -1.35691927       0.00000000
Si      -1.35791811       1.35769005       1.35678173       0.00000000
Si       1.35790182      -1.35804843       1.35691927       0.00000000
Si       1.35773892       1.36024758      -1.35719435       0.00000000
Si       0.00151497       2.71252935      -2.71280698       0.00000000
Si      -2.71277370      -0.00092853      -2.71507642       0.00000000
Si      -2.71456560       2.71463076      -0.00055017       0.00000000
Si       2.71432125      -0.00166158       2.71507642       0.00000000
Si      -2.71448415       0.00040725       2.71504203       0.00000000
Si       0.00039096      -2.71516833       2.71459502       0.00000000
