10
Lattice="16.28999089631971 0.0 0.0 0.0 16.28999089631971 0.0 0.0 0.0 34.385447050020396" Properties=species:S:1:pos:R:3:initial_magmoms:R:1 pbc="T T T"
Si      -1.35664749       1.35694071      -1.35733190       0.00000000
Si      -1.35656604      -1.35728280       1.35826030       0.00000000
Si       1.35791811      -1.35769005      -1.35678173       0.00000000
Si       1.35687555       1.35817875       1.35781329       0.00000000
Si       0.00117288      -2.71270854      -2.71370100       0.00000000
Si      -2.71419093      -0.00017919       2.71311644       0.00000000
Si       0.00278559       2.71384884      -2.71383854       0.00000000
Si      -2.71437012       2.71469592       0.00020631       0.00000000
Si      -2.71445157      -2.71516833       0.00024070       0.00000000
Si       2.71565703       0.00255753      -2.71397608       0.00000000
