10
Lattice="16.28999089631971 0.0 0.0 0.0 16.28999089631971 0.0 0.0 0.0 34.385447050020396" Properties=species:S:1:pos:R:3:initial_magmoms:R:1 pbc="T T T"
Si       2.27400255       0.52116597       0.31032883       0.00000000
Si      -0.56317788       2.08062396      -1.22931480       0.00000000
Si      -0.78841971      -0.04184901       2.38786432       0.00000000
Si      -0.27854271      -2.98292706      -1.21360065       0.00000000
Si       2.76196950      -0.78524316      -1.62949286       0.00000000
Si       0.85340052      -1.67560569      -2.79409422       0.00000000
Si      -2.06809695       1.00163952      -2.75685476       0.00000000
Si       2.72860758      -0.56516526       2.29326990       0.00000000
Si      -1.17032247       3.41211969       0.66817838       0.00000000
Si      -1.79771553       2.12973831       2.53806004       0.00000000
