10
Lattice="16.28999089631971 0.0 0.0 0.0 16.28999089631971 0.0 0.0 0.0 34.385447050020396" Properties=species:S:1:pos:R:3:initial_magmoms:R:1 pbc="T T T"
Si      -0.79032564      -1.96048521       1.06275161       0.00000000
Si       1.94465133       0.41699142       1.33931391       0.00000000
Si      -1.00929582       2.17158732       0.15019572       0.00000000
Si       0.78841971       0.04184901      -2.38786432       0.00000000
Si       3.51702729      -0.52331625      -0.09459442       0.00000000
Si      -2.86117560      -2.18012328      -0.08589489       0.00000000
Si      -0.76357746      -1.35099486       3.30911973       0.00000000
Si       3.06242226       0.56301498      -2.07753549       0.00000000
Si      -0.08146629       3.23551980       2.00491338       0.00000000
Si       1.58491926      -0.84846465       3.38469899       0.00000000
