10
Lattice="16.28999089631971 0.0 0.0 0.0 16.28999089631971 0.0 0.0 0.0 34.385447050020396" Properties=species:S:1:pos:R:3:initial_magmoms:R:1 pbc="T T T"
Si       0.07087779       1.14976449      -1.96481993       0.00000000
Si      -0.93323781       1.46546469       1.49356711       0.00000000
Si       1.61398062      -1.29780801       1.03892248       0.00000000
Si      -1.80553473      -1.49809356      -0.03012167       0.00000000
Si       0.16166196      -1.85999220       2.86093956       0.00000000
Si       1.73726334      -2.93421996      -0.58503432       0.00000000
Si       0.01607823       0.49410828       3.43988766       0.00000000
Si      -0.61123338      -3.43675017      -0.66061358       0.00000000
Si      -3.06087471       1.84780728       0.49353460       0.00000000
Si      -0.02275713       3.41249436      -1.29894537       0.00000000
