10
Lattice="16.28999089631971 0.0 0.0 0.0 16.28999089631971 0.0 0.0 0.0 34.385447050020396" Properties=species:S:1:pos:R:3:initial_magmoms:R:1 pbc="T T T"
Si      -0.02674818      -0.60949035      -2.24636813       0.00000000
Si      -1.15012287      -1.67568714       1.16298524       0.00000000
Si      -1.19430135       1.93865661       0.63049191       0.00000000
Si       2.34849672       0.50253021       0.07557925       0.00000000
Si       2.22521400       2.13894216       1.69953606       0.00000000
Si       0.61123338       3.43675017       0.66061358       0.00000000
Si      -1.56568077       1.28091528       2.95917884       0.00000000
Si      -2.87495694      -0.53683695       2.18282378       0.00000000
Si       0.76357746       1.35099486      -3.30911973       0.00000000
Si       1.74588075      -2.28472137      -2.43586643       0.00000000
