10
Lattice="16.28999089631971 0.0 0.0 0.0 16.28999089631971 0.0 0.0 0.0 34.385447050020396" Properties=species:S:1:pos:R:3:initial_magmoms:R:1 pbc="T T T"
Si      -0.33549255       1.85565906      -1.58709558       0.00000000
Si      -0.40431780       1.21955085       2.10535333       0.00000000
Si       2.23588395      -1.07548209      -0.25183915       0.00000000
Si      -2.22337323      -1.59865173      -0.14816697       0.00000000
Si       1.48585977       1.04379804      -2.84560365       0.00000000
Si      -1.36423863      -0.45763497       3.50043500       0.00000000
Si       3.54087585       0.78319062      -1.35103936       0.00000000
Si      -2.53215018       1.79805762      -2.48765094       0.00000000
Si       3.26239830      -1.50247557       1.88985961       0.00000000
Si      -3.15016020      -1.55225781       2.11783525       0.00000000
