10
Lattice="16.28999089631971 0.0 0.0 0.0 16.28999089631971 0.0 0.0 0.0 34.385447050020396" Properties=species:S:1:pos:R:3:initial_magmoms:R:1 pbc="T T T"
Si       1.35545832       1.35852084       1.35633472       0.00000000
Si       1.35664749      -1.35900954      -1.35575016       0.00000000
Si      -1.35943308      -1.35690813       1.35650664       0.00000000
Si      -1.36290285       1.36026387      -1.36183639       0.00000000
Si       2.71287144      -2.71129131      -0.00013754       0.00000000
Si       2.71226871       0.00138465       2.71390731       0.00000000
Si      -0.00278559      -2.71384884       2.71383854       0.00000000
Si       2.71311579       2.71596583       0.00024070       0.00000000
Si      -0.00224802       2.71569011       2.71438871       0.00000000
Si      -2.71715571       0.00084708       2.71404485       0.00000000
