10
Lattice="16.28999089631971 0.0 0.0 0.0 16.28999089631971 0.0 0.0 0.0 34.385447050020396" Properties=species:S:1:pos:R:3:initial_magmoms:R:1 pbc="T T T"
Si       1.76433732       1.02359504      -1.24021500       0.00000000
Si      -1.00849761      -1.83676266      -1.16903708       0.00000000
Si       0.79711857      -0.51373773       2.20737501       0.00000000
Si      -1.77906348       1.74173399       0.15497530       0.00000000
Si      -1.33291296      -0.37708092       3.09682386       0.00000000
Si      -2.30659884      -0.38827215      -2.62770295       0.00000000
Si       0.41199039       2.34766823      -2.63764035       0.00000000
Si      -2.14130421       1.74004308       2.59617147       0.00000000
Si       2.57285889       2.92026662       0.03108446       0.00000000
Si      -0.92139498       3.64316795      -1.13454846       0.00000000
