10
Lattice="16.28999089631971 0.0 0.0 0.0 16.28999089631971 0.0 0.0 0.0 34.385447050020396" Properties=species:S:1:pos:R:3:initial_magmoms:R:1 pbc="T T T"
Si      -1.07821881      -2.03219379       0.35643974       0.00000000
Si      -0.65423898       2.13263860       0.77594243       0.00000000
Si       2.07603018      -0.13334994       1.13073167       0.00000000
Si      -0.16773813      -0.08516412      -2.43607274       0.00000000
Si       1.01040354       3.15645533      -0.45877089       0.00000000
Si      -3.20585571      -1.64985120      -0.64359277       0.00000000
Si      -2.73111624       2.45727224      -0.19087372       0.00000000
Si      -0.14498100      -3.49765848      -1.13712737       0.00000000
Si      -3.65212026       0.37462113       0.39756476       0.00000000
Si      -0.12890277      -3.00355020       2.30276029       0.00000000
