10
Lattice="16.28999089631971 0.0 0.0 0.0 16.28999089631971 0.0 0.0 0.0 34.385447050020396" Properties=species:S:1:pos:R:3:initial_magmoms:R:1 pbc="T T T"
Si       1.80647955      -1.16699931       0.95017359       0.00000000
Si       0.91805553       1.92870572      -1.08757791       0.00000000
Si      -1.45790613      -1.63452231      -1.12058796       0.00000000
Si      -1.09157661       0.67637709       2.11171464       0.00000000
Si      -3.13940880       1.41998042       0.99814131       0.00000000
Si       2.90175399      -2.01491010      -0.93115843       0.00000000
Si       0.79658100      -3.32566866       1.34395595       0.00000000
Si      -1.40007663      -3.38327010       0.44340059       0.00000000
Si      -1.01978658       2.88508022      -2.10975467       0.00000000
Si       1.76169834      -1.95012477      -3.01099774       0.00000000
