10
Lattice="16.28999089631971 0.0 0.0 0.0 16.28999089631971 0.0 0.0 0.0 34.385447050020396" Properties=species:S:1:pos:R:3:initial_magmoms:R:1 pbc="T T T"
Si       1.09527444      -0.84791079      -1.88133202       0.00000000
Si      -1.80647955       1.16699931      -0.95017359       0.00000000
Si      -1.00989855      -2.15866935       0.39378236       0.00000000
Si       1.89262107       0.06872751       1.66573514       0.00000000
Si       0.81145377      -2.97053037      -0.86472571       0.00000000
Si      -2.89805616       1.84337640       1.16154105       0.00000000
Si      -0.88842402       3.09570503      -2.03775150       0.00000000
Si      -3.26438568      -0.46752300      -2.07076155       0.00000000
Si      -3.20655618      -2.21627079      -0.50677300       0.00000000
Si       3.33215208      -0.33739848      -2.17477758       0.00000000
