10
Lattice="16.28999089631971 0.0 0.0 0.0 16.28999089631971 0.0 0.0 0.0 34.385447050020396" Properties=species:S:1:pos:R:3:initial_magmoms:R:1 pbc="T T T"
Si       1.35483930       1.35545832       1.35915433       0.00000000
Si      -1.36187658       1.35205371      -1.36056413       0.00000000
Si      -1.36068741      -1.36042188       1.35853539       0.00000000
Si       1.35713619      -1.36778008      -1.35946379       0.00000000
Si       2.71069475      -2.71609688       0.00051578       0.00000000
Si       2.71414206       2.71332756       0.00395433       0.00000000
Si       2.71214249      -0.00270414       2.71562658       0.00000000
Si      -0.00322542       2.71218726       2.71562658       0.00000000
Si      -2.71803537       2.71160082       0.00013754       0.00000000
Si      -0.00361638      -2.71730956       2.71555781       0.00000000
