10
Lattice="16.28999089631971 0.0 0.0 0.0 16.28999089631971 0.0 0.0 0.0 34.385447050020396" Properties=species:S:1:pos:R:3:initial_magmoms:R:1 pbc="T T T"
Si       1.15294104      -1.43678356       1.43291115       0.00000000
Si       0.11515401      -0.17682632      -2.32762098       0.00000000
Si       0.68372388       2.12723128       0.82497611       0.00000000
Si      -2.41727310      -0.18148363       0.06629518       0.00000000
Si      -2.56753206       1.80726310      -1.24234690       0.00000000
Si      -0.18661824       1.68546277       2.95178597       0.00000000
Si      -0.72751140       2.02085758      -2.72566714       0.00000000
Si      -1.43759250      -1.89205648      -2.72009669       0.00000000
Si       1.33214733      -0.08713195       3.48599857       0.00000000
Si      -3.16280124      -2.01318892      -1.19231604       0.00000000
