10
Lattice="16.28999089631971 0.0 0.0 0.0 16.28999089631971 0.0 0.0 0.0 34.385447050020396" Properties=species:S:1:pos:R:3:initial_magmoms:R:1 pbc="T T T"
Si       1.34827443       1.32621777       1.36513396       0.00000000
Si       1.42449534      -1.29376809      -1.32502331       0.00000000
Si      -1.36594908      -1.38693060       1.35973544       0.00000000
Si      -1.07909847       1.57954356      -1.51372043       0.00000000
Si      -1.98301428      -0.36869157      -2.63369324       0.00000000
Si      -0.39511395      -2.18005812      -2.77599168       0.00000000
Si      -2.71086777       2.68921836      -0.02445151       0.00000000
Si      -0.00457749       2.68897401       2.72047150       0.00000000
Si       2.71333929       2.70001863      -0.01316963       0.00000000
Si       2.71006956      -0.02565675       2.72425390       0.00000000
