10
Lattice="16.28999089631971 0.0 0.0 0.0 16.28999089631971 0.0 0.0 0.0 34.385447050020396" Properties=species:S:1:pos:R:3:initial_magmoms:R:1 pbc="T T T"
Si      -1.34827443      -1.32621777      -1.36513396       0.00000000
Si      -1.35285192       1.36275624       1.35533754       0.00000000
Si       1.36179513      -1.35187452       1.35911994       0.00000000
Si       1.36506486       1.37380086      -1.37830359       0.00000000
Si       0.07622091      -2.61998586      -2.69015727       0.00000000
Si      -2.42737290       0.25332579      -2.87885439       0.00000000
Si       2.70877518      -2.70174537       0.00505466       0.00000000
Si       0.00249237      -2.70974376       2.71431994       0.00000000
Si      -2.71262709       0.00480555       2.71346030       0.00000000
Si      -2.71422351      -2.71314837      -0.00539852       0.00000000
