10
Lattice="16.28999089631971 0.0 0.0 0.0 16.28999089631971 0.0 0.0 0.0 34.385447050020396" Properties=species:S:1:pos:R:3:initial_magmoms:R:1 pbc="T T T"
Si      -1.35687187       1.35614250       1.35155514       0.00000000
Si       1.35908284       1.35602847      -1.35760698       0.00000000
Si      -1.35594196      -1.35886293      -1.35808838       0.00000000
Si       1.35867559      -1.35913986       1.36149254       0.00000000
Si      -0.03288299       2.71384884       2.69788368       0.00000000
Si      -2.70146748       0.01135413       2.71665815       0.00000000
Si      -0.02359769      -2.69663194       2.72160965       0.00000000
Si      -2.71230033       2.71303434      -0.00065332       0.00000000
Si       0.00143841       2.71368594      -2.71370100       0.00000000
Si      -2.71324515      -0.00070047      -2.71456063       0.00000000
