10
Lattice="16.28999089631971 0.0 0.0 0.0 16.28999089631971 0.0 0.0 0.0 34.385447050020396" Properties=species:S:1:pos:R:3:initial_magmoms:R:1 pbc="T T T"
Si      -0.97896384      -1.59503535       1.44501483       0.00000000
Si       1.37414295      -1.32380685      -1.40443998       0.00000000
Si      -1.35773892       1.37003787      -1.39938532       0.00000000
Si       0.85219506       1.71849726       1.42905998       0.00000000
Si      -1.69220520       0.63071622       2.60645273       0.00000000
Si       2.56692933       2.59872741      -0.03689561       0.00000000
Si       2.66533722      -2.65841397       0.04336007       0.00000000
Si       0.80834238      -3.47807790       1.26569463       0.00000000
Si      -2.59357977       2.78148492       0.05673602       0.00000000
Si      -2.68591149      -2.75517657       0.10006171       0.00000000
