10
Lattice="16.28999089631971 0.0 0.0 0.0 16.28999089631971 0.0 0.0 0.0 34.385447050020396" Properties=species:S:1:pos:R:3:initial_magmoms:R:1 pbc="T T T"
Si      -1.67894514       0.99098586       1.35207780       0.00000000
Si       1.04631843      -1.72933011       1.35125598       0.00000000
Si      -1.16641287      -1.43516529      -1.67540575       0.00000000
Si       2.01246401       1.72856448      -0.11674554       0.00000000
Si      -0.32304699       2.33981415       2.72921572       0.00000000
Si       2.40409353      -0.39187224       2.73141639       0.00000000
Si      -3.06255258       2.34996282      -0.18453304       0.00000000
Si       2.56844497      -3.00190491      -0.03120825       0.00000000
Si      -2.74611933      -2.84980518      -0.14929482       0.00000000
Si       1.03822686       3.66047703       1.32365133       0.00000000
