10
Lattice="16.28999089631971 0.0 0.0 0.0 16.28999089631971 0.0 0.0 0.0 34.385447050020396" Properties=species:S:1:pos:R:3:initial_magmoms:R:1 pbc="T T T"
Si       1.23893595      -1.39336515      -1.38594060       0.00000000
Si      -0.81953361      -1.81690515       1.24932715       0.00000000
Si       1.60480935       1.05876855       1.41489317       0.00000000
Si      -1.48383981       1.31872437      -1.35822592       0.00000000
Si      -1.30750056      -0.51049602       3.18914884       0.00000000
Si       2.56113009       2.57411322      -0.05989948       0.00000000
Si       2.58872812      -0.04351059      -2.73794275       0.00000000
Si       2.43240651      -2.89002519      -0.00890584       0.00000000
Si      -0.13304043       2.68107336      -2.73381650       0.00000000
Si      -2.72810259      -2.70726768       0.08472579       0.00000000
