10
Lattice="16.28999089631971 0.0 0.0 0.0 16.28999089631971 0.0 0.0 0.0 34.385447050020396" Properties=species:S:1:pos:R:3:initial_magmoms:R:1 pbc="T T T"
Si      -1.72330281      -1.25219601      -1.07162306       0.00000000
Si       1.29268548       1.12474305      -1.67274978       0.00000000
Si      -1.71900225       1.22622975       1.24107463       0.00000000
Si       0.83996520      -1.67783742       1.61532605       0.00000000
Si      -0.56076696       2.16984429      -2.76359431       0.00000000
Si      -0.72565434      -2.44045377      -2.79973343       0.00000000
Si       0.73349213      -3.69967077       0.42961202       0.00000000
Si      -0.49212090       2.77083126       2.56312704       0.00000000
Si       3.05957870       2.27497995      -0.45223765       0.00000000
Si       3.05682569      -0.95544108       2.12605338       0.00000000
