10
Lattice="16.28999089631971 0.0 0.0 0.0 16.28999089631971 0.0 0.0 0.0 34.385447050020396" Properties=species:S:1:pos:R:3:initial_magmoms:R:1 pbc="T T T"
Si      -1.35355856       1.34831680      -1.35997958       0.00000000
Si       1.35932495       1.35605292       1.35808838       0.00000000
Si      -1.35673511      -1.35981492       1.35757259       0.00000000
Si       1.35652470      -1.35647547      -1.36420899       0.00000000
Si      -2.71069475       2.71609688      -0.00051578       0.00000000
Si       2.71469693       2.71357193      -0.00079087       0.00000000
Si       0.00144774       2.71339274       2.71511080       0.00000000
Si      -2.71266584      -2.71652757       0.00182243       0.00000000
Si      -2.71431113      -0.00121268       2.71504203       0.00000000
Si       0.00125816      -2.71647870       2.71535150       0.00000000
