10
Lattice="16.28999089631971 0.0 0.0 0.0 16.28999089631971 0.0 0.0 0.0 34.385447050020396" Properties=species:S:1:pos:R:3:initial_magmoms:R:1 pbc="T T T"
Si       0.20106910      -1.71323559      -1.56099701       0.00000000
Si      -2.27583259       1.07759979       0.78615492       0.00000000
Si       2.90392219      -0.28826784      -0.07193440       0.00000000
Si       1.13290597      -0.02428839      -2.86441250       0.00000000
Si       1.96087780       1.83980889      -1.67890478       0.00000000
Si      -1.02396334      -2.85065226       1.36840402       0.00000000
Si       2.15870356       2.95984413       0.83560122       0.00000000
Si      -3.31028017      -1.66547331       0.91716354       0.00000000
Si       0.10570744       3.51648972      -1.63537278       0.00000000
Si       2.92532725      -1.98555552       1.78684075       0.00000000
