10
Lattice="16.28999089631971 0.0 0.0 0.0 16.28999089631971 0.0 0.0 0.0 34.385447050020396" Properties=species:S:1:pos:R:3:initial_magmoms:R:1 pbc="T T T"
Si       1.32263397      -1.30261356       1.60938080       0.00000000
Si      -2.02023693      -0.68602077      -1.22940562       0.00000000
Si      -1.36788759       1.44674748       1.61956234       0.00000000
Si       1.51148135       0.82370385      -1.94575804       0.00000000
Si      -2.77814547      -2.61312777       0.10119643       0.00000000
Si      -2.72600118       2.85842815       0.23511063       0.00000000
Si       2.29687112      -3.23452611       0.16898394       0.00000000
Si      -0.03863988      -2.62327644       3.01494519       0.00000000
Si      -3.72361707       1.11500163      -0.97367330       0.00000000
Si      -1.57737699      -0.81272439      -3.59467869       0.00000000
