10
Lattice="16.28999089631971 0.0 0.0 0.0 16.28999089631971 0.0 0.0 0.0 34.385447050020396" Properties=species:S:1:pos:R:3:initial_magmoms:R:1 pbc="T T T"
Si      -1.35593073      -1.35671265      -1.35575016       0.00000000
Si       1.35799327      -1.35666378       1.35777891       0.00000000
Si      -1.35757602       1.35860224       1.35746944       0.00000000
Si       1.35673511       1.35981492      -1.35757259       0.00000000
Si      -0.00591327      -2.70593190      -2.71359784       0.00000000
Si       0.00317655       2.70813172      -2.71755217       0.00000000
Si      -2.71454931      -2.71316466       0.00116911       0.00000000
Si      -2.71329498      -0.00166158      -2.71524834       0.00000000
Si       2.71460211      -2.71396287       0.00017193       0.00000000
Si      -2.71497285       0.00109143       2.71493887       0.00000000
