10
Lattice="16.28999089631971 0.0 0.0 0.0 16.28999089631971 0.0 0.0 0.0 34.385447050020396" Properties=species:S:1:pos:R:3:initial_magmoms:R:1 pbc="T T T"
Si       1.35496962      -1.35402480       1.35997958       0.00000000
Si      -1.35749457      -1.35725022      -1.35736628       0.00000000
Si       1.35739683       1.35751081      -1.35746944       0.00000000
Si      -1.35545832       1.35827649       1.36008273       0.00000000
Si       0.00042354      -2.71425609      -2.71376977       0.00000000
Si      -2.71376739       2.71476175       0.00044701       0.00000000
Si       0.00032580       2.71439848      -2.71449186       0.00000000
Si      -2.71430496      -0.00011403      -2.71493887       0.00000000
Si       2.71480995       2.71478944       0.00085964       0.00000000
Si       2.71497285      -0.00109143      -2.71493887       0.00000000
