10
Lattice="16.28999089631971 0.0 0.0 0.0 16.28999089631971 0.0 0.0 0.0 34.385447050020396" Properties=species:S:1:pos:R:3:initial_magmoms:R:1 pbc="T T T"
Si       1.98656550       0.57650310       1.13413583       0.00000000
Si      -1.15851222       2.10457026       0.11474430       0.00000000
Si      -0.95197131      -2.23541154       0.09672632       0.00000000
Si       0.82697814       0.08102646      -2.31200998       0.00000000
Si      -2.97808893       0.58311684       0.76232579       0.00000000
Si       0.62040465      -3.17571921      -1.33718201       0.00000000
Si       2.31088311       2.81742066       0.24860692       0.00000000
Si      -1.75865211       2.44692090      -2.14984812       0.00000000
Si       0.32133654       3.49246197       1.30224638       0.00000000
Si       3.59218935      -1.05743277       0.76696783       0.00000000
