10
Lattice="16.28999089631971 0.0 0.0 0.0 16.28999089631971 0.0 0.0 0.0 34.385447050020396" Properties=species:S:1:pos:R:3:initial_magmoms:R:1 pbc="T T T"
Si      -1.22688135      -1.54460151      -1.32205241       0.00000000
Si       0.34769376       1.13842665      -2.06388446       0.00000000
Si       2.25507098      -0.12383658       1.05195457       0.00000000
Si      -2.20073013       1.75526379      -0.28615585       0.00000000
Si      -0.25278822       3.22727706      -0.75534554       0.00000000
Si       0.88812821       3.39169203       1.36276480       0.00000000
Si       0.49212090      -2.77083126      -2.56312704       0.00000000
Si      -2.64359007       1.88196741       2.07911722       0.00000000
Si       1.67351798      -0.66653793       3.47750677       0.00000000
Si       3.08779298       2.08914363       1.30685403       0.00000000
