10
Lattice="16.28999089631971 0.0 0.0 0.0 16.28999089631971 0.0 0.0 0.0 34.385447050020396" Properties=species:S:1:pos:R:3:initial_magmoms:R:1 pbc="T T T"
Si      -1.35730319       1.35816246      -1.35647226       0.00000000
Si       1.35787721      -1.35733982      -1.35702243       0.00000000
Si       1.35594196       1.35886293       1.35808838       0.00000000
Si      -1.35834575      -1.35732678       1.35826030       0.00000000
Si      -0.00092991       2.71500543       2.70964351       0.00000000
Si       0.00199957       2.71603170      -2.71167226       0.00000000
Si      -2.71214249       0.00270414      -2.71562658       0.00000000
Si      -0.00144774      -2.71339274      -2.71511080       0.00000000
Si       2.71324919       0.00017919      -2.71590167       0.00000000
Si       2.71502480       2.71489140       0.00048140       0.00000000
