10
Lattice="16.28999089631971 0.0 0.0 0.0 16.28999089631971 0.0 0.0 0.0 34.385447050020396" Properties=species:S:1:pos:R:3:initial_magmoms:R:1 pbc="T T T"
Si       1.35054688      -1.34908893       1.35605963       0.00000000
Si      -1.35777510      -1.33745787      -1.38016041       0.00000000
Si      -1.36218513       1.36612827       1.35365265       0.00000000
Si       1.35589001       1.34814411      -1.39103653       0.00000000
Si      -0.39162952       2.12043672      -2.84816193       0.00000000
Si      -2.40409353       0.39187224      -2.73141639       0.00000000
Si       0.16435144      -2.61003267      -2.76262464       0.00000000
Si       2.71209766      -2.70602964       0.00085964       0.00000000
Si      -0.00566403      -2.70661608       2.71332276       0.00000000
Si       2.70952385       0.00703728       2.71215365       0.00000000
