10
Lattice="16.28999089631971 0.0 0.0 0.0 16.28999089631971 0.0 0.0 0.0 34.385447050020396" Properties=species:S:1:pos:R:3:initial_magmoms:R:1 pbc="T T T"
Si      -1.35589001      -1.34814411       1.39103653       0.00000000
Si       1.35353610       1.37806884       1.38323103       0.00000000
Si      -1.74751952       0.77229261      -1.45712540       0.00000000
Si       1.50094431      -1.36484136      -1.41092852       0.00000000
Si      -2.71366511      -2.68560198       0.01087612       0.00000000
Si       2.71622718      -2.70875007       0.03864239       0.00000000
Si      -2.72175668       2.70420516      -0.01672853       0.00000000
Si       2.70172908       2.73033432      -0.01046006       0.00000000
Si      -0.00534312      -2.69723304       2.74709616       0.00000000
Si       2.71003698       0.01420488       2.74420778       0.00000000
