10
Lattice="16.28999089631971 0.0 0.0 0.0 16.28999089631971 0.0 0.0 0.0 34.385447050020396" Properties=species:S:1:pos:R:3:initial_magmoms:R:1 pbc="T T T"
Si       1.35724368      -1.35723393      -1.35544069       0.00000000
Si      -1.35649506      -1.35788553       1.35760698       0.00000000
Si      -1.35776568       1.35777150      -1.35660980       0.00000000
Si       1.35766070       1.35839052       1.35729751       0.00000000
Si       0.00344578       2.70948312       2.71342591       0.00000000
Si      -0.00106659      -2.71477737       2.70981544       0.00000000
Si       0.00186288      -2.71375110      -2.71150033       0.00000000
Si       2.71345460       0.00029322      -2.71270382       0.00000000
Si      -2.71278417       0.00087966      -2.71528273       0.00000000
Si       2.71488812      -2.71489140       0.00065332       0.00000000
