10
Lattice="16.28999089631971 0.0 0.0 0.0 16.28999089631971 0.0 0.0 0.0 34.385447050020396" Properties=species:S:1:pos:R:3:initial_magmoms:R:1 pbc="T T T"
Si      -1.35054688       1.34908893      -1.35605963       0.00000000
Si      -1.35621092      -1.35752715       1.35726312       0.00000000
Si       1.35897696       1.35612621       1.35609402       0.00000000
Si       1.36155078      -1.35694071      -1.35520000       0.00000000
Si      -0.00045612      -2.71570590      -2.70805490       0.00000000
Si      -2.71159172      -2.71404432       0.00120349       0.00000000
Si      -2.71345460      -0.00029322       2.71270382       0.00000000
Si       2.71538010       2.71143792      -0.00288838       0.00000000
Si       0.00154755       2.71474479       2.71304767       0.00000000
Si      -2.71273202       2.71521720      -0.00240698       0.00000000
