10
Lattice="16.28999089631971 0.0 0.0 0.0 16.28999089631971 0.0 0.0 0.0 34.385447050020396" Properties=species:S:1:pos:R:3:initial_magmoms:R:1 pbc="T T T"
Si       1.35666378       1.35664749       1.35664419       0.00000000
Si      -1.35734144      -1.35664749       1.35695366       0.00000000
Si       1.35742941      -1.35861858      -1.35695366       0.00000000
Si      -1.35871958       1.35799956      -1.35753821       0.00000000
Si      -2.71155636      -0.00555489       2.71308206       0.00000000
Si       0.00198738      -2.71192662       2.71452625       0.00000000
Si      -0.00154755      -2.71474479      -2.71304767       0.00000000
Si       2.71495656       0.00039096       2.71291013       0.00000000
Si       0.00415395       2.71634121       2.71215365       0.00000000
Si       2.71469592      -2.71459818       0.00003439       0.00000000
