10
Lattice="16.28999089631971 0.0 0.0 0.0 16.28999089631971 0.0 0.0 0.0 34.385447050020396" Properties=species:S:1:pos:R:3:initial_magmoms:R:1 pbc="T T T"
Si      -1.35421492       1.35109260       1.35612840       0.00000000
Si       1.35734144       1.35664749      -1.35695366       0.00000000
Si       1.35932882      -1.35527913       1.35757259       0.00000000
Si      -1.35766070      -1.35839052      -1.35729751       0.00000000
Si       0.00516882       2.70907587       2.69826192       0.00000000
Si       2.71783337       0.00000000       2.68966556       0.00000000
Si      -2.70400709       0.00123804       2.70813055       0.00000000
Si      -0.03473843      -2.71546155       2.69884648       0.00000000
Si       2.71400522       2.71329498      -0.00030947       0.00000000
Si      -0.00041702      -2.71562445      -2.71273820       0.00000000
