10
Lattice="16.28999089631971 0.0 0.0 0.0 16.28999089631971 0.0 0.0 0.0 34.385447050020396" Properties=species:S:1:pos:R:3:initial_magmoms:R:1 pbc="T T T"
Si       1.33613838       1.34961021       1.37672530       0.00000000
Si      -1.35632658      -1.36391283       1.34306193       0.00000000
Si       1.35250983      -1.35969372      -1.35550947       0.00000000
Si      -1.36313905       1.35378045      -1.35427159       0.00000000
Si       2.55278961      -0.16161309       2.79694821       0.00000000
Si       2.71062342      -0.00107514      -2.71215365       0.00000000
Si      -2.74330835      -0.10427229       2.67897168       0.00000000
Si      -0.00413766       2.71372620      -2.71180980       0.00000000
Si       2.71080261      -2.71595025       0.00075648       0.00000000
Si       2.71420722       2.71292693       0.00952477       0.00000000
