10
Lattice="16.28999089631971 0.0 0.0 0.0 16.28999089631971 0.0 0.0 0.0 34.385447050020396" Properties=species:S:1:pos:R:3:initial_magmoms:R:1 pbc="T T T"
Si      -0.17153370       0.28909863       2.34715193       0.00000000
Si      -2.02960368      -0.76963734      -1.02475567       0.00000000
Si       0.41778963       2.32762013      -0.45911475       0.00000000
Si       2.00293695      -1.33703433       0.12138070       0.00000000
Si      -1.99989072      -1.09250514       2.59455536       0.00000000
Si       3.44574225       0.43328910      -0.44401953       0.00000000
Si       2.63099790       2.37808655       0.53531294       0.00000000
Si      -1.61367111      -0.30923307      -3.21731054       0.00000000
Si      -1.58113998      -3.04751691       1.25510390       0.00000000
Si      -3.69866242       0.71547702      -0.20177392       0.00000000
