10
Lattice="16.28999089631971 0.0 0.0 0.0 16.28999089631971 0.0 0.0 0.0 34.385447050020396" Properties=species:S:1:pos:R:3:initial_magmoms:R:1 pbc="T T T"
Si       1.46222298      -1.57881051      -1.02372410       0.00000000
Si      -1.71573515      -1.33921719       1.01089832       0.00000000
Si       0.60071004       2.35108683       0.01918709       0.00000000
Si       1.04917374       0.07320726       2.29904666       0.00000000
Si      -0.59335673      -1.45440378       3.09854314       0.00000000
Si      -3.32135900       0.29471868       1.37806633       0.00000000
Si       1.01664261       2.81149110      -2.17336778       0.00000000
Si       1.44989145      -0.97520085      -3.26792594       0.00000000
Si      -2.42907425       0.46854927      -2.91289600       0.00000000
Si      -2.99704139       2.53563624       0.49253742       0.00000000
