10
Lattice="16.28999089631971 0.0 0.0 0.0 16.28999089631971 0.0 0.0 0.0 34.385447050020396" Properties=species:S:1:pos:R:3:initial_magmoms:R:1 pbc="T T T"
Si      -0.41593257      -0.46040427       2.19255487       0.00000000
Si       0.78754005      -1.54893465      -1.52152250       0.00000000
Si      -2.21499822      -0.27935721      -0.93934217       0.00000000
Si       1.47204585       2.00536157      -0.21707545       0.00000000
Si      -0.92494457      -0.76905090      -2.87655057       0.00000000
Si       1.61367111       0.30923307       3.21731054       0.00000000
Si      -1.01664261      -2.81149110       2.17336778       0.00000000
Si       2.24547876       1.56272318      -2.57646860       0.00000000
Si      -1.74012223       3.33699740       0.01774290       0.00000000
Si      -2.08499131       1.02471009       3.01553662       0.00000000
