10
Lattice="16.28999089631971 0.0 0.0 0.0 16.28999089631971 0.0 0.0 0.0 34.54679606040008" Properties=species:S:1:pos:R:3:initial_magmoms:R:1 pbc="T T T"
Si      -1.33890931      -1.34098482       1.37894304       0.00000000
Si       1.37938833       1.36664191       1.37345010       0.00000000
Si       1.18242594      -1.56503748      -1.34927769       0.00000000
Si      -1.30126801       1.40319504      -1.49225660       0.00000000
Si       2.23725231       0.08183788      -2.63780758       0.00000000
Si       0.65614491       2.10209306      -2.73621975       0.00000000
Si      -2.70150821      -2.69743683       0.02906078       0.00000000
Si      -2.68966538       2.72922548      -0.01227794       0.00000000
Si      -2.69652347       0.00961908       2.73552739       0.00000000
Si       0.01834254      -2.70466959       2.73383460       0.00000000
