10
Lattice="16.28999089631971 0.0 0.0 0.0 16.28999089631971 0.0 0.0 0.0 34.54679606040008" Properties=species:S:1:pos:R:3:initial_magmoms:R:1 pbc="T T T"
Si       1.53534879      -1.64533887      -0.46486195       0.00000000
Si      -0.58109688       0.65505348      -2.13523502       0.00000000
Si       1.23067692       1.60966377       1.18740859       0.00000000
Si      -1.99839204      -0.57669858       1.09323397       0.00000000
Si       2.09707686       0.08513154       2.74018430       0.00000000
Si      -2.70031511       1.66490316       1.45449002       0.00000000
Si      -0.65111130       2.61379566       2.22585131       0.00000000
Si       2.79078651      -1.76513553       1.47829278       0.00000000
Si      -2.17124523      -0.93716370      -2.75697405       0.00000000
Si       2.83310793      -0.67909752      -2.22222390       0.00000000
