10
Lattice="16.28999089631971 0.0 0.0 0.0 16.28999089631971 0.0 0.0 0.0 34.54679606040008" Properties=species:S:1:pos:R:3:initial_magmoms:R:1 pbc="T T T"
Si      -0.66671712       1.94970775       1.20267828       0.00000000
Si       1.20363552      -1.28171416       1.66722931       0.00000000
Si       1.99679562      -1.06086181      -0.98468788       0.00000000
Si      -2.29205187      -0.96108719       0.06132060       0.00000000
Si       0.89795367       2.06266261      -1.34732580       0.00000000
Si       3.02010084       1.06631734      -0.81927773       0.00000000
Si      -2.39122539       2.67528064      -0.24628425       0.00000000
Si      -0.60344676      -2.40787444       2.66853421       0.00000000
Si      -1.96447626       0.98346640       2.96004023       0.00000000
Si      -2.65509081      -1.18202113       2.46177152       0.00000000
