10
Lattice="16.28999089631971 0.0 0.0 0.0 16.28999089631971 0.0 0.0 0.0 34.54679606040008" Properties=species:S:1:pos:R:3:initial_magmoms:R:1 pbc="T T T"
Si       0.72316197       1.97838206      -0.96976365       0.00000000
Si       0.88379766       0.26542177       2.13260946       0.00000000
Si       1.57183839      -1.48105098      -0.98779709       0.00000000
Si      -2.41007292      -0.18746208      -0.00449109       0.00000000
Si      -2.23829487      -1.95378678       1.56956546       0.00000000
Si       0.82875375      -1.29316212      -3.20442441       0.00000000
Si       3.07822356       0.86161296       1.59903390       0.00000000
Si      -0.03925890      -3.19834278       1.60511414       0.00000000
Si      -1.22289030      -0.06730881      -3.41118710       0.00000000
Si      -0.53227575       2.09817872      -2.91291838       0.00000000
