10
Lattice="16.28999089631971 0.0 0.0 0.0 16.28999089631971 0.0 0.0 0.0 34.54679606040008" Properties=species:S:1:pos:R:3:initial_magmoms:R:1 pbc="T T T"
Si       1.82524563       0.77856426      -1.20084730       0.00000000
Si      -1.83744684      -1.19580003      -0.89959907       0.00000000
Si       1.21327920      -1.26239355       1.64743398       0.00000000
Si      -1.03990473       2.15920692       0.36844179       0.00000000
Si      -2.85005279      -0.44163819       1.22554828       0.00000000
Si       2.18031876       0.60734007       2.62051413       0.00000000
Si       3.00126960       1.67956416       0.63707782       0.00000000
Si      -0.61427961      -3.23754695      -1.49746626       0.00000000
Si      -1.60081830      -0.28598724       3.25980295       0.00000000
Si      -2.27022327       0.11673414      -2.84779763       0.00000000
