10
Lattice="16.28999089631971 0.0 0.0 0.0 16.28999089631971 0.0 0.0 0.0 34.54679606040008" Properties=species:S:1:pos:R:3:initial_magmoms:R:1 pbc="T T T"
Si      -1.50149817       0.61846614      -1.66653837       0.00000000
Si       2.18716056      -0.17304867      -0.87147796       0.00000000
Si       0.41221845       1.57219677       1.76886604       0.00000000
Si      -0.80896140      -1.98939833       1.09848509       0.00000000
Si      -0.60504318      -0.27269460       2.95361453       0.00000000
Si      -2.46853773      -1.25126748      -2.63961852       0.00000000
Si       3.71651463       0.39099258       0.86177031       0.00000000
Si       2.45656458      -2.11387999      -2.20626327       0.00000000
Si       2.74468581       1.72613727      -2.24571573       0.00000000
Si      -3.56726565       1.51081605      -0.82100507       0.00000000
