10
Lattice="16.28999089631971 0.0 0.0 0.0 16.28999089631971 0.0 0.0 0.0 34.54679606040008" Properties=species:S:1:pos:R:3:initial_magmoms:R:1 pbc="T T T"
Si       1.32791193       0.92916531       1.74547785       0.00000000
Si       0.03240570      -2.35673843       0.45615615       0.00000000
Si      -2.21013665       0.94995135       0.23429650       0.00000000
Si       1.15505874       0.56870019      -2.10473018       0.00000000
Si      -1.15029296      -0.58311684       3.34589362       0.00000000
Si       3.32630397       1.50586389       0.65224387       0.00000000
Si      -3.36498362      -0.23641677      -1.62774230       0.00000000
Si       2.74520709       2.16091737      -1.48299114       0.00000000
Si      -0.97040249      -3.39044489      -1.42667983       0.00000000
Si      -1.43039951      -2.70318608       2.32814443       0.00000000
