10
Lattice="16.28999089631971 0.0 0.0 0.0 16.28999089631971 0.0 0.0 0.0 34.54679606040008" Properties=species:S:1:pos:R:3:initial_magmoms:R:1 pbc="T T T"
Si       2.15251173      -0.97840998      -0.10495323       0.00000000
Si      -0.39905613       1.70914680      -1.63496258       0.00000000
Si      -1.61218872      -1.77337827      -0.64471267       0.00000000
Si      -0.18336024       1.73219715       1.77948335       0.00000000
Si      -1.89728001      -1.78756686       1.69148117       0.00000000
Si       1.67138658       2.65831623      -0.87766184       0.00000000
Si      -1.21472901       0.08485461       3.09719597       0.00000000
Si      -2.51151075       2.31518367      -0.69750020       0.00000000
Si       3.16977336       0.86648139      -1.28970171       0.00000000
Si       1.94859351      -2.69511371      -1.96008266       0.00000000
