10
Lattice="16.28999089631971 0.0 0.0 0.0 16.28999089631971 0.0 0.0 0.0 34.54679606040008" Properties=species:S:1:pos:R:3:initial_magmoms:R:1 pbc="T T T"
Si      -1.03136877      -1.64734254       1.31771261       0.00000000
Si       1.72356345       1.09768536       1.21747848       0.00000000
Si      -1.81154574       1.63535310      -0.12078711       0.00000000
Si       0.18336024      -1.73219715      -1.77948335       0.00000000
Si       1.85474682       0.92611908      -2.65714520       0.00000000
Si      -0.21569589      -0.02305035      -3.41444594       0.00000000
Si      -2.32815051       0.58298652      -2.47698356       0.00000000
Si      -2.36178936      -0.19958508       2.66193956       0.00000000
Si       0.37590804       2.53949697       2.63585672       0.00000000
Si      -1.71391977      -3.51976401      -0.08800218       0.00000000
