10
Lattice="16.28999089631971 0.0 0.0 0.0 16.28999089631971 0.0 0.0 0.0 34.54679606040008" Properties=species:S:1:pos:R:3:initial_magmoms:R:1 pbc="T T T"
Si       1.34617302       1.35270531       1.38532730       0.00000000
Si      -1.36879983      -1.36249560       1.38570731       0.00000000
Si      -1.44386415       1.17346644      -1.52365274       0.00000000
Si       1.34765541      -1.44181161      -1.41837823       0.00000000
Si      -2.18745378      -0.90414387      -2.75664383       0.00000000
Si      -0.37590804      -2.53949697      -2.63585672       0.00000000
Si      -2.72210787       2.67662619       0.02507753       0.00000000
Si       2.69710272       2.70778896      -0.01657211       0.00000000
Si       2.69267184      -2.72850984       0.02514663       0.00000000
Si       2.70311373      -0.00548973       2.74685184       0.00000000
