10
Lattice="16.28999089631971 0.0 0.0 0.0 16.28999089631971 0.0 0.0 0.0 34.54679606040008" Properties=species:S:1:pos:R:3:initial_magmoms:R:1 pbc="T T T"
Si      -1.35679410      -1.35658233       1.35710255       0.00000000
Si       1.35760860      -1.35720135      -1.35768984       0.00000000
Si      -1.35731538       1.35755973      -1.35765530       0.00000000
Si       1.35767376       1.35889551       1.35654980       0.00000000
Si       2.71011843       0.00043983       2.71824707       0.00000000
Si       2.71430496      -2.71433754      -0.00013819       0.00000000
Si       0.00531054       2.71326240       2.71541423       0.00000000
Si      -2.71480995      -2.71433754       0.00020728       0.00000000
Si       2.71454931       0.00061902      -2.71475785       0.00000000
Si       0.00065160      -2.71451673       2.71489603       0.00000000
