10
Lattice="16.28999089631971 0.0 0.0 0.0 16.28999089631971 0.0 0.0 0.0 34.54679606040008" Properties=species:S:1:pos:R:3:initial_magmoms:R:1 pbc="T T T"
Si       1.35236322      -1.35436689      -1.35886444       0.00000000
Si       1.36334268       1.34423451       1.36439193       0.00000000
Si      -1.37593485      -1.34438112       1.35917536       0.00000000
Si      -1.36350558       1.35865116      -1.35824259       0.00000000
Si      -0.07685622       2.58558138       2.74350080       0.00000000
Si       2.70480789      -2.71282257       0.00283284       0.00000000
Si       2.70959715       0.00247608      -2.71548333       0.00000000
Si       2.70915732       2.71950147      -0.00369651       0.00000000
Si      -0.00531054      -2.71326240      -2.71541423       0.00000000
Si      -0.00518022       2.71710684      -2.71562152       0.00000000
