10
Lattice="16.28999089631971 0.0 0.0 0.0 16.28999089631971 0.0 0.0 0.0 34.54679606040008" Properties=species:S:1:pos:R:3:initial_magmoms:R:1 pbc="T T T"
Si      -1.44019890       1.24134687       1.37910887       0.00000000
Si      -1.36334268      -1.34423451      -1.36439193       0.00000000
Si       1.34581464       1.37526696      -1.36808844       0.00000000
Si       1.49112144      -1.26597735       1.41251564       0.00000000
Si       0.23957703       2.06845533       2.97593177       0.00000000
Si       2.72469798      -2.68946271      -0.00276375       0.00000000
Si       2.68705179       2.72722293      -0.01502786       0.00000000
Si      -0.01097946      -2.69860140      -2.72325636       0.00000000
Si       2.70342324       0.01531260      -2.72215086       0.00000000
Si      -2.73927753      -2.68861563      -0.00521657       0.00000000
