10
Lattice="16.28999089631971 0.0 0.0 0.0 16.28999089631971 0.0 0.0 0.0 34.54679606040008" Properties=species:S:1:pos:R:3:initial_magmoms:R:1 pbc="T T T"
Si       1.33043688      -1.94770570      -0.11497180       0.00000000
Si      -1.24923449      -0.15565095      -2.03425468       0.00000000
Si      -1.02920220      -0.56534445       2.10051547       0.00000000
Si       1.71536958       1.78567722       0.20624449       0.00000000
Si       2.81409750      -0.97640631      -1.61236897       0.00000000
Si      -1.71289024       2.13144876      -2.22156751       0.00000000
Si       1.60081830       0.28598724      -3.25980295       0.00000000
Si       0.91289160      -0.79280172       3.44110464       0.00000000
Si       0.56091357       2.44519416      -2.89136117       0.00000000
Si       2.15743131      -2.39838973       2.09039325       0.00000000
