10
Lattice="16.28999089631971 0.0 0.0 0.0 16.28999089631971 0.0 0.0 0.0 34.54679606040008" Properties=species:S:1:pos:R:3:initial_magmoms:R:1 pbc="T T T"
Si       1.47261600      -1.14088644      -1.44650971       0.00000000
Si       2.00401209       0.68218026       1.14902708       0.00000000
Si      -1.22737005       1.58113576      -1.40909551       0.00000000
Si      -0.97485876      -1.79965404       1.54444993       0.00000000
Si       2.67887421      -2.52964152      -0.02141903       0.00000000
Si      -2.65463469      -2.62676250      -0.05237297       0.00000000
Si       0.13137885      -2.49284241      -2.79957028       0.00000000
Si       1.53632619       0.40797558       3.46231638       0.00000000
Si      -2.58476688       0.22230963      -2.79172815       0.00000000
Si       2.79650430       2.78717732       0.06864452       0.00000000
