10
Lattice="16.28999089631971 0.0 0.0 0.0 16.28999089631971 0.0 0.0 0.0 34.54679606040008" Properties=species:S:1:pos:R:3:initial_magmoms:R:1 pbc="T T T"
Si       1.38642561       1.28717064       1.38266719       0.00000000
Si      -0.44489619      -2.14291692       0.85541370       0.00000000
Si       1.43687574      -0.48760857      -1.86345522       0.00000000
Si      -2.19903597       1.24455600      -0.03554867       0.00000000
Si       1.61109729       1.71729180      -2.59291123       0.00000000
Si       0.03925890       3.19834278      -1.60511414       0.00000000
Si      -2.19427929      -1.52575398       2.39395612       0.00000000
Si      -0.62723016      -3.33539379      -1.26455163       0.00000000
Si       0.92305656       3.46376455       0.52749532       0.00000000
Si       0.77467095       0.76260006       3.54788884       0.00000000
