10
Lattice="16.28999089631971 0.0 0.0 0.0 16.28999089631971 0.0 0.0 0.0 34.54679606040008" Properties=species:S:1:pos:R:3:initial_magmoms:R:1 pbc="T T T"
Si      -1.79906760      -1.04501816       1.10671449       0.00000000
Si      -1.04966244       0.59873895      -2.03117418       0.00000000
Si       1.05683004       1.82011428       1.10076552       0.00000000
Si      -0.31109013      -2.31857460       2.48464185       0.00000000
Si       2.40982857       0.41922315       2.50986103       0.00000000
Si       3.24083034      -0.60299064      -1.81985131       0.00000000
Si      -3.01382919       0.40896045       2.52457452       0.00000000
Si      -0.31695453       3.12033321       2.51426575       0.00000000
Si       2.91328731      -2.77087103      -0.20274943       0.00000000
Si      -0.03240081       2.44363032      -3.21592266       0.00000000
