10
Lattice="16.28999089631971 0.0 0.0 0.0 16.28999089631971 0.0 0.0 0.0 34.54679606040008" Properties=species:S:1:pos:R:3:initial_magmoms:R:1 pbc="T T T"
Si       1.94209380      -0.22745727       1.34058917       0.00000000
Si       1.02920220       0.56534445      -2.10051547       0.00000000
Si      -1.41163927      -2.01553564      -0.25067169       0.00000000
Si      -0.71285855       2.05864875       1.17545539       0.00000000
Si      -2.50136927       2.35266696      -0.40184856       0.00000000
Si       2.35963908      -1.38236125      -2.21548727       0.00000000
Si       3.18663351      -1.83304528      -0.01012222       0.00000000
Si       1.65700251      -0.24164586       3.67678301       0.00000000
Si      -1.35545995      -3.45912353       1.68426089       0.00000000
Si       2.74457178       2.35102167      -1.89427098       0.00000000
