10
Lattice="16.28999089631971 0.0 0.0 0.0 16.28999089631971 0.0 0.0 0.0 34.54679606040008" Properties=species:S:1:pos:R:3:initial_magmoms:R:1 pbc="T T T"
Si       1.41250590      -1.19974058      -1.50233736       0.00000000
Si      -1.28475972       1.47603690      -1.50295920       0.00000000
Si      -0.79249221      -2.10499706       1.08038256       0.00000000
Si       1.02646548       1.43739702       1.79118328       0.00000000
Si      -0.23687289      -0.25202259       3.55908201       0.00000000
Si       2.83398759      -2.41227240      -0.05644950       0.00000000
Si       3.48433326      -0.53120061       1.28565973       0.00000000
Si       2.63329479       2.67287949      -0.14634031       0.00000000
Si       0.04999401      -2.56681223      -2.86254912       0.00000000
Si       1.09991709      -3.57869213       0.99512102       0.00000000
