10
Lattice="16.28999089631971 0.0 0.0 0.0 16.28999089631971 0.0 0.0 0.0 34.54679606040008" Properties=species:S:1:pos:R:3:initial_magmoms:R:1 pbc="T T T"
Si       1.67260833       1.47975102       0.82787988       0.00000000
Si      -1.02646548      -1.43739702      -1.79118328       0.00000000
Si      -0.78954372       2.31130665       1.01460542       0.00000000
Si      -1.26333837      -1.68941961       1.76789873       0.00000000
Si       1.60682931       1.23548247      -1.93752359       0.00000000
Si       2.45786778      -1.96859763      -0.50552355       0.00000000
Si      -3.38548554      -0.69307434       1.23985066       0.00000000
Si      -2.52605772       1.31406543       2.33049362       0.00000000
Si      -2.29006449       3.06820521      -0.66647716       0.00000000
Si      -2.31122520       0.03863988      -3.29414249       0.00000000
