10
Lattice="16.28999089631971 0.0 0.0 0.0 16.28999089631971 0.0 0.0 0.0 34.54679606040008" Properties=species:S:1:pos:R:3:initial_magmoms:R:1 pbc="T T T"
Si      -2.13231213      -0.58002174       0.65694224       0.00000000
Si       1.11083139       0.14434569       2.03017815       0.00000000
Si       1.28324475      -1.41610273      -1.35502974       0.00000000
Si      -0.53155899       1.68446745      -1.55851048       0.00000000
Si       2.56108122      -2.55597724       0.30294102       0.00000000
Si      -2.82602178       1.27024533       1.91883377       0.00000000
Si       1.62665424       2.12224491      -2.47825035       0.00000000
Si       0.22274946      -1.69679083       3.22573979       0.00000000
Si      -3.38774985      -0.46022508      -1.28621248       0.00000000
Si      -2.08999071       0.50601627      -3.04357443       0.00000000
