10
Lattice="16.28999089631971 0.0 0.0 0.0 16.28999089631971 0.0 0.0 0.0 34.54679606040008" Properties=species:S:1:pos:R:3:initial_magmoms:R:1 pbc="T T T"
Si       1.64903670       1.02576501       1.54880283       0.00000000
Si       2.51268363      -0.59772897       0.09583287       0.00000000
Si      -0.32754303      -2.16788039       1.61710188       0.00000000
Si       0.03106503       1.86541677      -2.30316709       0.00000000
Si       0.54968976      -0.36790639       3.00073089       0.00000000
Si       2.47153509      -0.91996635      -2.25366150       0.00000000
Si      -3.24083034       0.60299064       1.81985131       0.00000000
Si       2.19063033       1.28410812      -3.10796970       0.00000000
Si      -0.89881704       3.78657792      -1.21825890       0.00000000
Si      -2.18400030       2.42310492       2.92061683       0.00000000
