10
Lattice="16.28999089631971 0.0 0.0 0.0 16.28999089631971 0.0 0.0 0.0 34.54679606040008" Properties=species:S:1:pos:R:3:initial_magmoms:R:1 pbc="T T T"
Si      -1.35669636       1.35713619      -1.35755166       0.00000000
Si       1.35821133       1.35633798       1.35779348       0.00000000
Si       1.35804843      -1.35749457      -1.35779348       0.00000000
Si      -1.35876519      -1.35871632       1.35734438       0.00000000
Si      -0.00078192      -2.71510317      -2.71351416       0.00000000
Si      -2.71430496       2.71433754       0.00013819       0.00000000
Si      -2.71365336      -0.00017919       2.71503422       0.00000000
Si      -2.71489140      -0.00265527      -2.71458511       0.00000000
Si       0.00024435       2.71495656      -2.71461966       0.00000000
Si      -2.71433754      -2.71533123      -0.00020728       0.00000000
