10
Lattice="16.28999089631971 0.0 0.0 0.0 16.28999089631971 0.0 0.0 0.0 34.54679606040008" Properties=species:S:1:pos:R:3:initial_magmoms:R:1 pbc="T T T"
Si       1.47396807       1.22898276      -1.25736589       0.00000000
Si       1.50052077      -0.75689856       1.68108258       0.00000000
Si      -1.26630315      -1.56484998      -1.31350447       0.00000000
Si      -0.96172902       1.48240629       1.65717619       0.00000000
Si       1.28428731       1.38585546       2.72805837       0.00000000
Si      -2.59281414       2.26401678      -0.04494541       0.00000000
Si      -0.23599323      -1.75413978       2.99697078       0.00000000
Si      -0.02264310       2.43963927      -2.62759623       0.00000000
Si      -2.13180714      -0.10391391       3.05100200       0.00000000
Si       2.67405237      -0.28369035      -2.61927045       0.00000000
