10
Lattice="16.28999089631971 0.0 0.0 0.0 16.28999089631971 0.0 0.0 0.0 34.54679606040008" Properties=species:S:1:pos:R:3:initial_magmoms:R:1 pbc="T T T"
Si       0.85861332       0.45204750       2.10555930       0.00000000
Si       0.64024587       1.17390627      -1.92436126       0.00000000
Si      -2.19649473       0.87509880       0.19805689       0.00000000
Si       0.73790442      -2.23879986      -0.47636604       0.00000000
Si      -0.40715226      -2.36203371      -2.45652040       0.00000000
Si       0.32167863      -0.46610577      -3.62485915       0.00000000
Si       3.17446488       0.39516282       1.94899314       0.00000000
Si      -3.45857877      -0.09583407      -1.50361559       0.00000000
Si      -1.00796004       2.79549432      -2.38628672       0.00000000
Si      -0.58531599       1.94613372       3.22708712       0.00000000
