10
Lattice="16.28999089631971 0.0 0.0 0.0 16.28999089631971 0.0 0.0 0.0 34.54679606040008" Properties=species:S:1:pos:R:3:initial_magmoms:R:1 pbc="T T T"
Si      -1.34645647      -1.33708320       1.36494468       0.00000000
Si      -1.33971729       1.17457416      -1.53451081       0.00000000
Si       1.36889757       1.37658645       1.35962447       0.00000000
Si       1.33042059      -1.44775746      -1.34422695       0.00000000
Si       0.55024362       1.83493818      -2.78272667       0.00000000
Si       2.36178936       0.19958508      -2.66193956       0.00000000
Si      -2.69794070      -2.69304651      -0.02599993       0.00000000
Si      -2.68469528       2.71132389      -0.00752084       0.00000000
Si       0.00873144      -2.69723304       2.72028534       0.00000000
Si      -2.70448627       0.01762578       2.72135629       0.00000000
