10
Lattice="16.28999089631971 0.0 0.0 0.0 16.28999089631971 0.0 0.0 0.0 34.54679606040008" Properties=species:S:1:pos:R:3:initial_magmoms:R:1 pbc="T T T"
Si      -1.33237539      -1.57356513      -1.11213108       0.00000000
Si       1.01393847       1.13964840      -1.82987572       0.00000000
Si      -1.40377446       1.16450694       1.62325121       0.00000000
Si       1.74003264      -1.41222897       0.97466930       0.00000000
Si       0.37822122      -2.33500860      -2.70753756       0.00000000
Si      -2.07526455      -0.65291949       3.00522747       0.00000000
Si       2.04198408      -0.64521432      -3.11525908       0.00000000
Si      -3.34290348      -0.53947593      -1.80648752       0.00000000
Si       1.56434499      -1.06520310       3.34181709       0.00000000
Si       2.88290646       2.40969825      -1.10401258       0.00000000
