10
Lattice="16.28999089631971 0.0 0.0 0.0 16.28999089631971 0.0 0.0 0.0 34.54679606040008" Properties=species:S:1:pos:R:3:initial_magmoms:R:1 pbc="T T T"
Si      -1.35700587       1.35721208       1.35800077       0.00000000
Si       1.35819504       1.35707069      -1.35710255       0.00000000
Si       1.35769005      -1.35747828       1.35744802       0.00000000
Si      -1.35848826      -1.35881406      -1.35637706       0.00000000
Si      -2.71208952      -0.00024435      -2.71537969       0.00000000
Si      -2.71360449      -0.00123804       2.71486149       0.00000000
Si       0.00092853      -2.71344159      -2.71565606       0.00000000
Si      -2.71420722      -2.71505430       0.00034547       0.00000000
Si      -2.71448415       2.71485786       0.00027637       0.00000000
Si       2.71487511      -2.71513575       0.00055275       0.00000000
