10
Lattice="16.28999089631971 0.0 0.0 0.0 16.28999089631971 0.0 0.0 0.0 34.54679606040008" Properties=species:S:1:pos:R:3:initial_magmoms:R:1 pbc="T T T"
Si       0.87723279       1.79997399       1.38362901       0.00000000
Si      -1.87838361      -1.05020001       1.14233333       0.00000000
Si       1.81578114      -1.73128491      -0.04622364       0.00000000
Si       0.32754303       2.16788039      -1.61710188       0.00000000
Si       2.22523029       0.46810080       2.73060244       0.00000000
Si      -0.51657219      -2.25093591       2.71103167       0.00000000
Si       2.84022666       1.57015142      -1.52126901       0.00000000
Si       1.97657973       3.19364540      -0.06829905       0.00000000
Si       3.54586059      -0.91579122       1.36777203       0.00000000
Si       0.88130529      -3.57379794       1.33376760       0.00000000
