10
Lattice="16.28999089631971 0.0 0.0 0.0 16.28999089631971 0.0 0.0 0.0 34.54679606040008" Properties=species:S:1:pos:R:3:initial_magmoms:R:1 pbc="T T T"
Si       1.09934694       1.39367140      -1.45192807       0.00000000
Si       1.34799750      -1.33187319       1.34697342       0.00000000
Si      -1.38069153       1.39012018       1.32898144       0.00000000
Si      -0.87723279      -1.79997399      -1.38362901       0.00000000
Si      -0.54968976       0.36790639      -3.00073089       0.00000000
Si       1.96299387      -0.22982258      -2.90489803       0.00000000
Si      -0.02594997      -2.68514001       2.69259952       0.00000000
Si       2.66862780      -2.71576521      -0.01585699       0.00000000
Si       2.69037495       0.02437636       2.69653785       0.00000000
Si       2.70464499       2.68093978      -0.24150988       0.00000000
