10
Lattice="16.28999089631971 0.0 0.0 0.0 16.28999089631971 0.0 0.0 0.0 34.54679606040008" Properties=species:S:1:pos:R:3:initial_magmoms:R:1 pbc="T T T"
Si       1.35715248      -1.35737737       1.35768984       0.00000000
Si      -1.35716877       1.35743756       1.35789712       0.00000000
Si       1.35803214       1.35817060      -1.35644616       0.00000000
Si      -1.35757602      -1.35796636      -1.35713709       0.00000000
Si       2.71287144       0.00034535       2.71423964       0.00000000
Si       2.71422351      -2.71425513       0.00048366       0.00000000
Si      -2.71435383       0.00085523       2.71475785       0.00000000
Si      -0.00055386      -2.71445061       2.71493058       0.00000000
Si       2.71422351      -0.00213236      -2.71544878       0.00000000
Si       0.00105885       2.71348231      -2.71634700       0.00000000
