10
Lattice="16.28999089631971 0.0 0.0 0.0 16.28999089631971 0.0 0.0 0.0 34.54679606040008" Properties=species:S:1:pos:R:3:initial_magmoms:R:1 pbc="T T T"
Si       1.35334062       1.34799587      -1.36646474       0.00000000
Si      -1.36251189      -1.36707165      -1.36021176       0.00000000
Si       1.42148169      -1.21253181       1.44588786       0.00000000
Si      -1.41250590       1.19974058       1.50233736       0.00000000
Si      -0.31258881      -2.37895155       2.49745838       0.00000000
Si      -2.20499811      -0.90525648       2.58271992       0.00000000
Si       2.07182736       0.66853997       2.78799709       0.00000000
Si      -2.69726562       2.67577748      -0.00062184       0.00000000
Si       2.70288567       2.69737802      -0.02152267       0.00000000
Si      -0.00257382       2.70519722      -2.71990532       0.00000000
