10
Lattice="16.28999089631971 0.0 0.0 0.0 16.28999089631971 0.0 0.0 0.0 34.54679606040008" Properties=species:S:1:pos:R:3:initial_magmoms:R:1 pbc="T T T"
Si      -1.35547461      -1.35682668       1.35748256       0.00000000
Si       1.35782037      -1.35728280      -1.35758620       0.00000000
Si       1.35765747       1.35819504       1.35727528       0.00000000
Si      -1.35780408       1.35811359      -1.35768984       0.00000000
Si       0.00043983      -2.71402803       2.71092315       0.00000000
Si       0.00076563      -2.71402803      -2.71451602       0.00000000
Si       2.71424280      -0.00042354      -2.71437783       0.00000000
Si      -2.71443528      -2.71476108      -0.00017273       0.00000000
Si       2.71476457      -2.71505430       0.00003455       0.00000000
Si      -2.71479366       2.71526607      -0.00038001       0.00000000
