10
Lattice="16.28999089631971 0.0 0.0 0.0 16.28999089631971 0.0 0.0 0.0 34.54679606040008" Properties=species:S:1:pos:R:3:initial_magmoms:R:1 pbc="T T T"
Si      -1.27836264       1.35441576      -1.53474227       0.00000000
Si       1.41258735      -1.34356662      -1.52821292       0.00000000
Si       1.38839670       1.43555625       1.48022740       0.00000000
Si      -2.01921880      -0.97179624       1.17932464       0.00000000
Si       2.63492379       2.67910227      -0.13628719       0.00000000
Si      -2.72952701       2.61418662      -0.16309552       0.00000000
Si       2.86531326      -2.55246381      -0.11310627       0.00000000
Si      -2.78044955      -2.73002481      -0.15988266       0.00000000
Si      -3.68671112       0.75530214       1.05378151       0.00000000
Si      -2.64739283       0.00172674      -2.90680359       0.00000000
