10
Lattice="16.28999089631971 0.0 0.0 0.0 16.28999089631971 0.0 0.0 0.0 34.54679606040008" Properties=species:S:1:pos:R:3:initial_magmoms:R:1 pbc="T T T"
Si       1.50339174      -0.51807087      -1.73815392       0.00000000
Si       1.16182953      -1.03094523       1.78662310       0.00000000
Si       0.06600708       2.36657862       0.39987939       0.00000000
Si      -2.27279709      -0.76646079      -0.24566240       0.00000000
Si      -1.57794714       2.45930130       2.06216850       0.00000000
Si       3.43563335      -0.71719983       1.11682945       0.00000000
Si       3.55259555       0.43082163      -0.96679263       0.00000000
Si      -2.02580811      -2.90646180      -1.30410773       0.00000000
Si       0.70201170       0.51209244      -3.67443383       0.00000000
Si       0.14315652      -0.18080271       3.78536365       0.00000000
