10
Lattice="16.28999089631971 0.0 0.0 0.0 16.28999089631971 0.0 0.0 0.0 34.54679606040008" Properties=species:S:1:pos:R:3:initial_magmoms:R:1 pbc="T T T"
Si       0.45258507       1.94263137      -1.16343310       0.00000000
Si      -1.06740225      -1.67876595      -1.22288817       0.00000000
Si       2.17368873      -0.69747264       0.55976205       0.00000000
Si      -0.92085741       0.95589720       1.98948200       0.00000000
Si       1.37468052      -1.89174141       2.48125592       0.00000000
Si       1.47450564       3.13110090       0.56121302       0.00000000
Si       3.10501639       1.41579648       1.10508353       0.00000000
Si      -0.24226488      -1.28313072      -3.47126401       0.00000000
Si      -0.18042804      -0.55781847       3.69357276       0.00000000
Si      -3.35741787      -1.67806548      -0.43587717       0.00000000
