10
Lattice="16.28999089631971 0.0 0.0 0.0 16.28999089631971 0.0 0.0 0.0 34.54679606040008" Properties=species:S:1:pos:R:3:initial_magmoms:R:1 pbc="T T T"
Si       0.58109688      -0.65505348       2.13523502       0.00000000
Si      -0.96723504       2.09640897       0.21135742       0.00000000
Si      -1.59014835      -1.59221718      -0.62173904       0.00000000
Si       1.68969654      -0.60857811      -1.53595141       0.00000000
Si       0.39949596      -2.50509249      -2.07460536       0.00000000
Si       2.11644567      -2.30039235       1.67037307       0.00000000
Si       3.41420481      -1.33415100      -0.08698888       0.00000000
Si      -1.41729516      -1.23175206       3.22846899       0.00000000
Si      -2.74520709      -2.16091737       1.48299114       0.00000000
Si       0.84699855       3.73099644       0.23509108       0.00000000
