10
Lattice="16.28999089631971 0.0 0.0 0.0 16.28999089631971 0.0 0.0 0.0 34.54679606040008" Properties=species:S:1:pos:R:3:initial_magmoms:R:1 pbc="T T T"
Si      -2.12066478       0.74437155       0.68243779       0.00000000
Si       1.37689744       1.87994745      -0.32539645       0.00000000
Si       0.40255848      -0.81445113      -2.21199804       0.00000000
Si       1.05593409      -0.92535345       2.07170342       0.00000000
Si       3.32544779       0.48578409      -0.40409410       0.00000000
Si      -2.70013266      -1.18762245       1.89599832       0.00000000
Si       0.82445319       3.03865515       1.64263198       0.00000000
Si      -1.50392538       2.70756090       1.86597714       0.00000000
Si       3.24701144      -1.13917599       1.26921545       0.00000000
Si       2.79822519      -0.56130453      -2.45804046       0.00000000
