10
Lattice="16.28999089631971 0.0 0.0 0.0 16.28999089631971 0.0 0.0 0.0 34.54679606040008" Properties=species:S:1:pos:R:3:initial_magmoms:R:1 pbc="T T T"
Si      -0.09361863       2.28578741      -0.41338719       0.00000000
Si       1.39662708      -0.57770856       1.77722637       0.00000000
Si       0.55244425      -1.15870770      -1.96802843       0.00000000
Si      -2.32837857      -0.33109425       0.22334516       0.00000000
Si      -0.82445319      -3.03865515      -1.64263198       0.00000000
Si       0.37077669      -2.65028526       2.39174512       0.00000000
Si       0.04952160       2.35040984      -2.76001417       0.00000000
Si      -3.29145966       1.68711036      -0.55720559       0.00000000
Si       0.75628998       0.87909052       3.59701442       0.00000000
Si       3.65989778      -0.50083605       0.81641034       0.00000000
