10
Lattice="16.28999089631971 0.0 0.0 0.0 16.28999089631971 0.0 0.0 0.0 34.54679606040008" Properties=species:S:1:pos:R:3:initial_magmoms:R:1 pbc="T T T"
Si      -1.30667565      -1.43415531      -1.18811058       0.00000000
Si      -1.31153626       1.40887323       1.27437674       0.00000000
Si       1.72290696       0.71534277      -1.37216703       0.00000000
Si       1.41383679      -1.34570061       1.25803265       0.00000000
Si       2.57239788       2.54127258      -0.10396173       0.00000000
Si      -2.66178178       0.04338027       2.62135708       0.00000000
Si       0.05627055      -2.67213015       2.62177164       0.00000000
Si       0.71110248       1.30929246      -3.45544299       0.00000000
Si       0.05106263       2.76532524       2.62425901       0.00000000
Si       2.77133136       0.03984534       2.61859333       0.00000000
