10
Lattice="16.28999089631971 0.0 0.0 0.0 16.28999089631971 0.0 0.0 0.0 34.54679606040008" Properties=species:S:1:pos:R:3:initial_magmoms:R:1 pbc="T T T"
Si       1.36711056       1.34934957      -1.38684736       0.00000000
Si      -1.34445959      -1.36930482      -1.39019840       0.00000000
Si       1.33602924      -1.38375405       1.39655501       0.00000000
Si      -1.41236159       1.43971020       1.67845702       0.00000000
Si      -0.22922474      -2.69254152       2.65257358       0.00000000
Si      -2.69352122       2.71567332       0.00051820       0.00000000
Si       2.71090524       2.71345788      -0.00013819       0.00000000
Si       2.71367454      -2.71454931      -0.03188671       0.00000000
Si      -2.70678128      -2.72420928      -0.02186813       0.00000000
Si      -2.70337667      -0.01288539      -2.74830280       0.00000000
