10
Lattice="16.28999089631971 0.0 0.0 0.0 16.28999089631971 0.0 0.0 0.0 34.54679606040008" Properties=species:S:1:pos:R:3:initial_magmoms:R:1 pbc="T T T"
Si      -1.33807267       0.66132513       1.79342883       0.00000000
Si       0.35072207      -2.28766986      -0.38972262       0.00000000
Si      -0.96692131       0.54750690      -2.11191592       0.00000000
Si       1.99472190       1.08248679       0.78697645       0.00000000
Si       0.34652088      -1.33115364      -3.22463429       0.00000000
Si      -1.09559602       3.01475772       1.69110116       0.00000000
Si       2.30408529      -2.23127388      -1.83181034       0.00000000
Si      -0.28528255      -0.43318368       3.68459059       0.00000000
Si       3.28993980       1.48353030      -1.12664074       0.00000000
Si       1.30007069       3.26790432       1.44505874       0.00000000
