10
Lattice="16.28999089631971 0.0 0.0 0.0 16.28999089631971 0.0 0.0 0.0 34.54679606040008" Properties=species:S:1:pos:R:3:initial_magmoms:R:1 pbc="T T T"
Si      -0.01076769       1.78593786      -1.47241982       0.00000000
Si      -0.92660778      -1.55966976      -1.53170215       0.00000000
Si      -1.40455638       0.19373697       1.92180479       0.00000000
Si       2.16332829       0.30677328       0.97294196       0.00000000
Si       0.76375665       1.25682237       2.61553939       0.00000000
Si      -2.97407670      -1.92099825      -0.39621743       0.00000000
Si       1.73861541       1.16877492      -3.01096224       0.00000000
Si      -2.52690806      -1.96799490       1.93330888       0.00000000
Si      -1.94841432       1.63633050      -2.83929911       0.00000000
Si       0.57889773       3.82210641      -0.36916727       0.00000000
