10
Lattice="16.28999089631971 0.0 0.0 0.0 16.28999089631971 0.0 0.0 0.0 34.54679606040008" Properties=species:S:1:pos:R:3:initial_magmoms:R:1 pbc="T T T"
Si      -1.35774790      -1.35707103      -1.35651525       0.00000000
Si       1.35686089       1.35774007      -1.35699891       0.00000000
Si       1.35508528      -1.35496962       1.36269913       0.00000000
Si      -1.35917800       1.35815001       1.36010812       0.00000000
Si       2.71406224       2.71311483      -0.00041456       0.00000000
Si      -0.00062391       2.71497026      -2.71427419       0.00000000
Si       2.71510480       0.00008145      -2.71434328       0.00000000
Si      -0.00022643      -2.71534752      -2.71420510       0.00000000
Si       2.71407853      -2.71583622       0.00024183       0.00000000
Si      -2.71576033       0.00086337      -2.71430874       0.00000000
