10
Lattice="16.28999089631971 0.0 0.0 0.0 16.28999089631971 0.0 0.0 0.0 34.54679606040008" Properties=species:S:1:pos:R:3:initial_magmoms:R:1 pbc="T T T"
Si      -1.24890217      -1.14205932       1.62881325       0.00000000
Si       0.23242572       2.29791627       0.51986048       0.00000000
Si       2.09750040      -1.15082334      -0.21892317       0.00000000
Si      -0.59499225      -1.23362541      -2.03898759       0.00000000
Si       0.74096694      -2.92643334      -0.94288623       0.00000000
Si      -0.55425096      -3.32747685       0.97073096       0.00000000
Si      -1.99045392       3.03468860       0.07973405       0.00000000
Si      -0.72167958      -0.09497070       3.68275961       0.00000000
Si       2.14817859       3.08646453      -0.68730889       0.00000000
Si       3.61976832      -0.07276743      -1.70322709       0.00000000
