10
Lattice="16.28999089631971 0.0 0.0 0.0 16.28999089631971 0.0 0.0 0.0 34.54679606040008" Properties=species:S:1:pos:R:3:initial_magmoms:R:1 pbc="T T T"
Si       0.17177805      -1.76632470       1.57405655       0.00000000
Si      -0.72857025      -0.66839499      -2.19952664       0.00000000
Si       2.41007292       0.18746208       0.00449109       0.00000000
Si      -1.22316723       2.04174692       0.59786719       0.00000000
Si       1.18718262       0.12015327      -3.40669601       0.00000000
Si       0.61427961       3.23754695       1.49746626       0.00000000
Si      -1.68267555      -3.06128196       0.96337249       0.00000000
Si       3.13323489       2.16584414      -0.96527257       0.00000000
Si       3.29387058       0.45288385       2.13710055       0.00000000
Si      -2.95144989       0.06837734      -2.63965307       0.00000000
