10
Lattice="16.28999089631971 0.0 0.0 0.0 16.28999089631971 0.0 0.0 0.0 34.32429715621058" Properties=species:S:1:pos:R:3:initial_magmoms:R:1 pbc="T T T"
Si      -0.54290009      -1.02985380       2.00824710       0.00000000
Si      -1.30247931      -1.08644526      -1.58832341       0.00000000
Si       2.17865881      -0.18435393      -0.84554521       0.00000000
Si      -1.16158256       1.94546487      -0.81245657       0.00000000
Si      -0.55685247       0.57627913      -3.17462169       0.00000000
Si       1.82239651       0.35632746      -3.11520630       0.00000000
Si       0.88599844       0.00164529       3.55352782       0.00000000
Si       2.64626326      -2.48150457      -0.79320063       0.00000000
Si      -2.76554257      -0.66028257       2.55420968       0.00000000
Si      -3.55893073      -0.71213364      -1.20444026       0.00000000
