10
Lattice="16.28999089631971 0.0 0.0 0.0 16.28999089631971 0.0 0.0 0.0 34.32429715621058" Properties=species:S:1:pos:R:3:initial_magmoms:R:1 pbc="T T T"
Si       1.35599589       1.35672670       1.35821320       0.00000000
Si      -1.35744570       1.35673973      -1.35742374       0.00000000
Si       1.35557235      -1.35951255      -1.35738941       0.00000000
Si      -1.35860229      -1.35894240       1.35814455       0.00000000
Si      -0.00702099       2.71333672      -2.69298289       0.00000000
Si       2.71347417       2.71423267       0.00085811       0.00000000
Si      -0.00086337       2.71327156       2.71495045       0.00000000
Si       2.71401174      -0.00106155       2.71471018       0.00000000
Si       2.71314837      -2.71625778       0.00099541       0.00000000
Si      -2.71718829       2.71291318       0.00082378       0.00000000
