10
Lattice="16.28999089631971 0.0 0.0 0.0 16.28999089631971 0.0 0.0 0.0 34.32429715621058" Properties=species:S:1:pos:R:3:initial_magmoms:R:1 pbc="T T T"
Si      -1.35435060      -1.36065483      -1.39205697       0.00000000
Si       1.36029645       1.35684297      -1.39229724       0.00000000
Si       1.39460319      -1.36252818       1.45696426       0.00000000
Si      -1.36146933       1.43659881       1.46146074       0.00000000
Si      -2.70730678       2.70449838      -0.03240215       0.00000000
Si       2.70128925       2.71521720      -0.02035432       0.00000000
Si       2.71295289      -2.71350838      -0.03799702       0.00000000
Si      -2.72007325      -2.71138905      -0.01973648       0.00000000
Si       0.00265527       2.71060713      -2.75404585       0.00000000
Si      -2.71234201      -0.00247608      -2.75411449       0.00000000
