10
Lattice="16.28999089631971 0.0 0.0 0.0 16.28999089631971 0.0 0.0 0.0 34.32429715621058" Properties=species:S:1:pos:R:3:initial_magmoms:R:1 pbc="T T T"
Si      -1.17299403      -0.29348064       2.06011114       0.00000000
Si       2.22387822      -0.92882322       0.43482044       0.00000000
Si      -0.39008034       1.97578152      -1.41611832       0.00000000
Si       1.04443335      -1.85069550      -1.86075551       0.00000000
Si      -0.95956245      -2.73496787      -0.88508682       0.00000000
Si       0.03486060      -2.16075121       2.94303553       0.00000000
Si      -2.73494439       2.26963683      -1.16616865       0.00000000
Si      -0.86781717       1.76311557       3.18907223       0.00000000
Si      -3.71649834       0.18492408      -0.76773198       0.00000000
Si      -3.44194668      -0.63244296       1.56930774       0.00000000
