10
Lattice="16.28999089631971 0.0 0.0 0.0 16.28999089631971 0.0 0.0 0.0 34.32429715621058" Properties=species:S:1:pos:R:3:initial_magmoms:R:1 pbc="T T T"
Si      -1.55913219      -0.95763113      -1.40386454       0.00000000
Si      -0.27256428       2.30972652       0.27648237       0.00000000
Si      -0.63649917      -0.85340771       2.12910302       0.00000000
Si       2.23389657      -0.48885380      -0.70804200       0.00000000
Si       0.44776323       0.67440111       3.51491297       0.00000000
Si      -0.96549201       2.38140252       2.61606209       0.00000000
Si      -1.09152774      -3.25478177      -1.35151996       0.00000000
Si       3.63765474       0.70580660       0.88230655       0.00000000
Si      -0.20095344      -3.09039938       2.23358624       0.00000000
Si      -3.73779100      -0.77327720      -0.55831933       0.00000000
