10
Lattice="16.28999089631971 0.0 0.0 0.0 16.28999089631971 0.0 0.0 0.0 34.32429715621058" Properties=species:S:1:pos:R:3:initial_magmoms:R:1 pbc="T T T"
Si      -0.44279478       1.91961360       1.24913052       0.00000000
Si       2.20724613      -0.71356716       0.56683176       0.00000000
Si      -1.90785222      -1.27951434       0.72829334       0.00000000
Si      -0.09894546       0.42332823      -2.39350323       0.00000000
Si      -2.65284279       1.99728432       0.29402209       0.00000000
Si       2.22288453       0.80544276      -2.67358965       0.00000000
Si      -3.55949532      -0.10099800      -0.49674151       0.00000000
Si       1.18276803       3.38592537       0.31012020       0.00000000
Si       3.30426360      -0.89909397      -1.50416019       0.00000000
Si       2.00236680      -2.88343426       1.33411753       0.00000000
