10
Lattice="16.28999089631971 0.0 0.0 0.0 16.28999089631971 0.0 0.0 0.0 34.32429715621058" Properties=species:S:1:pos:R:3:initial_magmoms:R:1 pbc="T T T"
Si       1.37673306       1.91873313      -0.08787025       0.00000000
Si      -1.38548079       0.15982526      -1.95075387       0.00000000
Si      -1.70600283       0.36196136       1.65237259       0.00000000
Si       2.77250913      -0.09694979      -0.66736768       0.00000000
Si      -0.67956993      -2.10990509      -1.96908306       0.00000000
Si       0.11697849       1.21037225       3.01174393       0.00000000
Si       2.75628429      -2.49206849      -0.53920069       0.00000000
Si      -3.62462274       0.25491488      -1.14529946       0.00000000
Si       1.06616421       3.10940181       1.93596459       0.00000000
Si       0.83375478       3.56421861      -1.62103449       0.00000000
