10
Lattice="16.28999089631971 0.0 0.0 0.0 16.28999089631971 0.0 0.0 0.0 34.32429715621058" Properties=species:S:1:pos:R:3:initial_magmoms:R:1 pbc="T T T"
Si      -1.89060111      -1.27485540       0.49598637       0.00000000
Si       0.18428877       2.33663760       0.01451919       0.00000000
Si       1.39461948      -0.74404575       1.81074498       0.00000000
Si       0.22980303      -0.80935236      -2.26416920       0.00000000
Si       1.42130250      -2.97232227       0.98181274       0.00000000
Si       2.53281807      -1.04018166      -2.29131974       0.00000000
Si      -0.63930105       2.80857519       2.19850679       0.00000000
Si      -0.90052749      -3.35443680       1.26189917       0.00000000
Si       2.52578079       2.66639607      -0.46015178       0.00000000
Si      -3.25811403      -1.23015564      -1.42459643       0.00000000
