10
Lattice="16.28999089631971 0.0 0.0 0.0 16.28999089631971 0.0 0.0 0.0 34.32429715621058" Properties=species:S:1:pos:R:3:initial_magmoms:R:1 pbc="T T T"
Si       0.32169492       1.94945688       1.22040107       0.00000000
Si      -2.10962016      -0.60357708       0.81273116       0.00000000
Si       1.58107482      -1.63211139       0.85337115       0.00000000
Si      -0.43528509       0.66476232      -2.30748649       0.00000000
Si       0.63721593      -1.53205821       2.95690256       0.00000000
Si       2.43269973       2.54816325       0.41903125       0.00000000
Si       0.88531263       0.86252292       3.35928652       0.00000000
Si      -1.84192659       3.01231422       0.74772091       0.00000000
Si      -2.59327026      -2.46268962      -0.48874394       0.00000000
Si      -1.74219921      -1.09186983       3.06450929       0.00000000
