10
Lattice="16.28999089631971 0.0 0.0 0.0 16.28999089631971 0.0 0.0 0.0 34.32429715621058" Properties=species:S:1:pos:R:3:initial_magmoms:R:1 pbc="T T T"
Si      -1.35850455       1.35513252       1.36058158       0.00000000
Si       1.35420399       1.34423451      -1.37782611       0.00000000
Si       1.35689184      -1.36081773       1.36051293       0.00000000
Si      -1.37560905      -1.35407367      -1.37902403       0.00000000
Si      -2.71673217       2.71099809       0.00202513       0.00000000
Si       2.71443528       2.71427238      -0.00133865       0.00000000
Si      -0.00034209       2.71217097       2.71779937       0.00000000
Si       2.71215468      -2.71945260       0.00140730       0.00000000
Si       2.71407690      -0.00224802       2.71786802       0.00000000
Si       0.02673189      -2.61703737      -2.81222213       0.00000000
