10
Lattice="16.28999089631971 0.0 0.0 0.0 16.28999089631971 0.0 0.0 0.0 34.32429715621058" Properties=species:S:1:pos:R:3:initial_magmoms:R:1 pbc="T T T"
Si      -1.35702216       1.35664749       1.35708050       0.00000000
Si       1.35734796       1.35700587      -1.35708050       0.00000000
Si      -1.35827649      -1.35679410      -1.35735509       0.00000000
Si       1.35742941      -1.35814617       1.35718347       0.00000000
Si      -2.71352304       0.00091224      -2.71443558       0.00000000
Si       2.71423980      -0.00198738       2.71395504       0.00000000
Si      -0.00087966       2.71287144      -2.71563694       0.00000000
Si      -2.71425446       2.71441899      -0.00013730       0.00000000
Si       2.71551042       2.71404432       0.00013730       0.00000000
Si      -2.71521557      -0.00030951       2.71436694       0.00000000
