10
Lattice="16.28999089631971 0.0 0.0 0.0 16.28999089631971 0.0 0.0 0.0 34.32429715621058" Properties=species:S:1:pos:R:3:initial_magmoms:R:1 pbc="T T T"
Si       1.35681039       1.35615879       1.35677158       0.00000000
Si       1.35814617      -1.35741312      -1.35718347       0.00000000
Si      -1.35742941       1.35814617      -1.35718347       0.00000000
Si      -1.35896067      -1.35835794       1.35694320       0.00000000
Si      -0.00148239       2.71353933       2.71512207       0.00000000
Si      -2.71445157       2.71479366      -0.00010297       0.00000000
Si      -0.00008145       2.71515204      -2.71426396       0.00000000
Si       2.71531494      -0.00079821      -2.71433261       0.00000000
Si      -2.71538010      -2.71430496      -0.00013730       0.00000000
Si       2.71539639       2.71464705       0.00020595       0.00000000
