10
Lattice="16.28999089631971 0.0 0.0 0.0 16.28999089631971 0.0 0.0 0.0 34.32429715621058" Properties=species:S:1:pos:R:3:initial_magmoms:R:1 pbc="T T T"
Si      -2.15594892      -0.99810459      -0.01081216       0.00000000
Si       1.28130624      -1.27741293       1.63943232       0.00000000
Si       0.15530886       0.39491847      -2.45157997       0.00000000
Si      -0.41674707       2.04055056       1.46448128       0.00000000
Si       2.65570983       0.66720582      -2.28490109       0.00000000
Si      -0.55065087       2.74382244      -2.34812648       0.00000000
Si      -3.07561716      -0.87063534       2.18213409       0.00000000
Si       3.62279826      -0.94765446       1.16476135       0.00000000
Si       0.45771642      -0.80547534       3.82341992       0.00000000
Si      -2.72528442       2.53255743      -1.35196617       0.00000000
