10
Lattice="16.28999089631971 0.0 0.0 0.0 16.28999089631971 0.0 0.0 0.0 34.32429715621058" Properties=species:S:1:pos:R:3:initial_magmoms:R:1 pbc="T T T"
Si      -0.59216123       2.14208613       0.68422092       0.00000000
Si       1.78061478      -0.73554237       1.30947267       0.00000000
Si       0.74019040       0.75469941      -2.14890815       0.00000000
Si      -1.97167988      -1.37854777       0.20889779       0.00000000
Si      -0.01282593      -1.12186787      -3.35242165       0.00000000
Si      -2.17515827       2.78800092      -0.99743031       0.00000000
Si       2.03475507      -3.06568745       1.01356274       0.00000000
Si      -0.56275778       2.65448808      -2.72088856       0.00000000
Si       1.23000137       3.64770567       0.62123580       0.00000000
Si      -3.60095681      -0.89694369      -1.40856697       0.00000000
