10
Lattice="16.28999089631971 0.0 0.0 0.0 16.28999089631971 0.0 0.0 0.0 34.32429715621058" Properties=species:S:1:pos:R:3:initial_magmoms:R:1 pbc="T T T"
Si      -1.34239374      -1.34690607      -1.37802863       0.00000000
Si      -1.35557235       1.35951255       1.35738941       0.00000000
Si       1.35757602      -1.35674523       1.35838482       0.00000000
Si       1.34648253       1.35610127      -1.38887168       0.00000000
Si       2.71585251      -2.71264338      -0.00356973       0.00000000
Si      -2.71301805       2.71625229      -0.00003432       0.00000000
Si      -2.71417464       0.00057015       2.71553396       0.00000000
Si       0.00107514      -2.71474479       2.71556829       0.00000000
Si      -2.71531494      -2.71591767      -0.00020595       0.00000000
Si       2.71596654       0.00016290       2.71546531       0.00000000
