10
Lattice="16.28999089631971 0.0 0.0 0.0 16.28999089631971 0.0 0.0 0.0 34.32429715621058" Properties=species:S:1:pos:R:3:initial_magmoms:R:1 pbc="T T T"
Si       1.35521397      -1.35570267      -1.35522698       0.00000000
Si      -1.35765747       1.35466893      -1.35502104       0.00000000
Si      -1.35819504      -1.37052657       1.34156590       0.00000000
Si       1.34996859       1.36219165       1.36030698       0.00000000
Si       2.64611502      -0.06082686       2.71090018       0.00000000
Si      -2.66665671      -0.02705769       2.70008802       0.00000000
Si       2.71456560       2.71190123       0.00034324       0.00000000
Si      -2.71547784      -2.71166598       0.00168189       0.00000000
Si       2.71407690       0.00006048      -2.71319991       0.00000000
Si      -0.00079821       2.71439360      -2.71295964       0.00000000
