10
Lattice="16.28999089631971 0.0 0.0 0.0 16.28999089631971 0.0 0.0 0.0 34.32429715621058" Properties=species:S:1:pos:R:3:initial_magmoms:R:1 pbc="T T T"
Si      -1.41613857      -1.72356345       0.67114336       0.00000000
Si       2.23153452      -0.76606983      -0.13595862       0.00000000
Si      -0.89464680       1.05930612      -1.98068467       0.00000000
Si       0.09977625       1.63352277       1.84743768       0.00000000
Si       2.80961775       0.68716107      -1.86806659       0.00000000
Si      -1.55004237      -1.02029157      -3.14146440       0.00000000
Si       2.37503313       2.22201694       1.67262394       0.00000000
Si       1.10934900       1.94357849      -2.95635337       0.00000000
Si      -3.59460027      -0.89147025       0.20598022       0.00000000
Si       2.28879387       2.86545077      -0.66077741       0.00000000
