10
Lattice="16.28999089631971 0.0 0.0 0.0 16.28999089631971 0.0 0.0 0.0 34.32429715621058" Properties=species:S:1:pos:R:3:initial_magmoms:R:1 pbc="T T T"
Si      -1.25209990       1.79661433      -0.87746682       0.00000000
Si       2.23914195      -0.09508962      -0.80545441       0.00000000
Si      -1.13132421      -1.61292244      -1.36940292       0.00000000
Si       1.91861991       0.10704648       2.79767205       0.00000000
Si      -0.19626192       3.42892120       0.43052990       0.00000000
Si       0.19679949       2.24786362       2.69380667       0.00000000
Si      -0.65840922      -0.77436211      -3.54223512       0.00000000
Si      -0.91254951       1.55578297      -3.24632519       0.00000000
Si       3.62462274      -0.25491488       1.14529946       0.00000000
Si       2.94505281      -2.36481997      -0.82378359       0.00000000
