10
Lattice="16.28999089631971 0.0 0.0 0.0 16.28999089631971 0.0 0.0 0.0 34.32429715621058" Properties=species:S:1:pos:R:3:initial_magmoms:R:1 pbc="T T T"
Si       0.85721238       1.70307063       1.38426535       0.00000000
Si      -1.44252837      -1.37394747       1.26001133       0.00000000
Si       1.39843134      -1.30867344      -1.40818940       0.00000000
Si      -1.32699969       1.40678811      -1.42425318       0.00000000
Si      -1.15588953       1.67267349       3.11115603       0.00000000
Si       2.65582386       2.77304670       0.00356973       0.00000000
Si       0.03608235      -2.65948911      -2.78861043       0.00000000
Si      -2.67739182       0.05680323      -2.78812989       0.00000000
Si      -2.65945653       2.80717425      -0.03737918       0.00000000
Si      -2.74157442      -2.75802732      -0.11186295       0.00000000
