10
Lattice="16.28999089631971 0.0 0.0 0.0 16.28999089631971 0.0 0.0 0.0 34.32429715621058" Properties=species:S:1:pos:R:3:initial_magmoms:R:1 pbc="T T T"
Si       1.35739683      -1.35237951      -1.35924293       0.00000000
Si      -1.35641943      -1.35575154       1.35786995       0.00000000
Si       1.35886293       1.35894438       1.35749239       0.00000000
Si      -1.35606105       1.36076886      -1.36133671       0.00000000
Si      -2.71360449      -2.71432125       0.00051486       0.00000000
Si       0.00087966      -2.71322982       2.71488180       0.00000000
Si      -2.71352304       0.00112401       2.71505342       0.00000000
Si       2.71616202       0.00210141       2.71460721       0.00000000
Si      -2.71433754       2.71666701       0.00061784       0.00000000
Si       0.00167787       2.71622718       2.71498477       0.00000000
