10
Lattice="16.28999089631971 0.0 0.0 0.0 16.28999089631971 0.0 0.0 0.0 34.32429715621058" Properties=species:S:1:pos:R:3:initial_magmoms:R:1 pbc="T T T"
Si      -1.35039213      -1.34998488      -1.36387671       0.00000000
Si       1.36159965       1.36458072      -1.36219482       0.00000000
Si      -1.33245684       1.40038614       1.38687400       0.00000000
Si       1.32699969      -1.40678811       1.42425318       0.00000000
Si       0.47257290       2.31433659       2.56244751       0.00000000
Si       2.18421207       0.29628252       2.80851854       0.00000000
Si      -2.70658350       2.71823085      -0.00078946       0.00000000
Si       0.00451233      -2.70932022      -2.72322261       0.00000000
Si      -2.72810259      -2.70518256       0.01064054       0.00000000
Si      -2.71096551       0.00472410      -2.72322261       0.00000000
