10
Lattice="16.28999089631971 0.0 0.0 0.0 16.28999089631971 0.0 0.0 0.0 34.32429715621058" Properties=species:S:1:pos:R:3:initial_magmoms:R:1 pbc="T T T"
Si      -1.35731538      -1.35555606      -1.35745806       0.00000000
Si       1.35666378      -1.35418770       1.36013536       0.00000000
Si       1.35788553       1.35954711      -1.35752671       0.00000000
Si      -1.35845568       1.36003581       1.36030698       0.00000000
Si       2.71401174      -2.71213839      -0.00006865       0.00000000
Si      -0.00021177      -2.71243161      -2.71464153       0.00000000
Si      -2.71463076       0.00198738      -2.71471018       0.00000000
Si       2.71226871       0.00902466       2.71731883       0.00000000
Si      -2.71590138      -2.71404432      -0.00089243       0.00000000
Si       2.71507059       0.00226431      -2.71501910       0.00000000
