10
Lattice="16.28999089631971 0.0 0.0 0.0 16.28999089631971 0.0 0.0 0.0 34.32429715621058" Properties=species:S:1:pos:R:3:initial_magmoms:R:1 pbc="T T T"
Si      -0.22382460       2.25758453       0.51386934       0.00000000
Si      -1.09600749      -0.83621457      -1.88958794       0.00000000
Si       2.29781853      -0.19386729      -0.41257828       0.00000000
Si      -0.53413281      -1.19707065       1.99458602       0.00000000
Si       0.20504223      -2.90194947      -1.66939745       0.00000000
Si       0.18440280       1.94487485       2.83271718       0.00000000
Si       2.36765376      -2.51522487      -0.46650178       0.00000000
Si       0.93123414      -0.21859551       3.52579377       0.00000000
Si      -3.41835876      -0.60020505      -1.25554917       0.00000000
Si      -2.50216029       2.89654186       0.13376186       0.00000000
