10
Lattice="16.28999089631971 0.0 0.0 0.0 16.28999089631971 0.0 0.0 0.0 34.32429715621058" Properties=species:S:1:pos:R:3:initial_magmoms:R:1 pbc="T T T"
Si      -1.46536695      -0.97847514      -1.53120775       0.00000000
Si      -0.61613667      -0.77553432       2.12862248       0.00000000
Si       2.30593095      -0.32112477      -0.34152695       0.00000000
Si      -0.74683134       2.16347036      -0.69307660       0.00000000
Si       0.20706219      -3.19415949       1.65299043       0.00000000
Si      -2.96798913       2.04542473       0.12566132       0.00000000
Si      -3.56000031      -0.22719663      -0.74257226       0.00000000
Si      -0.93123414       0.21859551      -3.52579377       0.00000000
Si       0.57708954       0.99702945       3.46761406       0.00000000
Si       1.08181890       3.50219592      -0.10908268       0.00000000
