10
Lattice="16.28999089631971 0.0 0.0 0.0 16.28999089631971 0.0 0.0 0.0 34.32429715621058" Properties=species:S:1:pos:R:3:initial_magmoms:R:1 pbc="T T T"
Si      -1.35523026       1.31782842      -1.34639190       0.00000000
Si       1.33342677       1.35296595       1.36299457       0.00000000
Si      -1.38323277      -1.35919687       1.35846377       0.00000000
Si       1.38229351      -1.25295187      -1.49605622       0.00000000
Si      -2.16710757      -0.56172807      -2.48504687       0.00000000
Si      -0.48746196      -2.22836123      -2.64218942       0.00000000
Si       2.67842528      -2.72433050      -0.02510824       0.00000000
Si       2.68987715      -0.00206883       2.71949156       0.00000000
Si       2.69732168       2.71549413      -0.00950784       0.00000000
Si      -0.02452025       2.71358820       2.71907966       0.00000000
