10
Lattice="16.28999089631971 0.0 0.0 0.0 16.28999089631971 0.0 0.0 0.0 34.32429715621058" Properties=species:S:1:pos:R:3:initial_magmoms:R:1 pbc="T T T"
Si      -1.34149779      -1.35319028       1.38007779       0.00000000
Si       1.35854269      -1.35705101      -1.35948320       0.00000000
Si      -1.35705474       1.35962807      -1.35848779       0.00000000
Si       1.34909449       1.36636724       1.37496346       0.00000000
Si       2.71667420      -2.70960971      -0.00192216       0.00000000
Si       0.00096186      -2.71337270      -2.71622045       0.00000000
Si      -2.71077003       2.71895852       0.00037757       0.00000000
Si      -2.71412577       0.00161479      -2.71625477       0.00000000
Si      -2.71562445      -2.71562072      -0.00034324       0.00000000
Si       2.71481714       2.71710146       0.00264297       0.00000000
