10
Lattice="16.28999089631971 0.0 0.0 0.0 16.28999089631971 0.0 0.0 0.0 34.32429715621058" Properties=species:S:1:pos:R:3:initial_magmoms:R:1 pbc="T T T"
Si      -0.46162602       1.73726334      -1.47271912       0.00000000
Si      -0.04606812      -2.33029169      -0.39212099       0.00000000
Si      -1.23685083       0.55223100       1.94371739       0.00000000
Si       2.35128005       0.32730682      -0.00013730       0.00000000
Si       2.21038329      -2.70460331      -0.77600414       0.00000000
Si       0.39242610       0.07062692       3.56118214       0.00000000
Si      -2.08121040       3.01285179      -0.46186800       0.00000000
Si      -0.60170373      -3.22948340       1.70660501       0.00000000
Si      -1.65477078       2.88210825       1.83837606       0.00000000
Si      -0.78421689       0.86771943      -3.61342375       0.00000000
