10
Lattice="16.28999089631971 0.0 0.0 0.0 16.28999089631971 0.0 0.0 0.0 34.32429715621058" Properties=species:S:1:pos:R:3:initial_magmoms:R:1 pbc="T T T"
Si      -0.85237425       1.91690783       0.97010815       0.00000000
Si       1.16623368      -0.89218864       1.80940634       0.00000000
Si      -1.82865024      -1.33872556      -0.58399392       0.00000000
Si       1.27889532      -0.17735738      -1.97471224       0.00000000
Si      -0.35038161       0.30424670      -3.59217700       0.00000000
Si      -1.08181890      -3.50219592       0.10908268       0.00000000
Si       1.63378926      -2.52642492      -2.16936544       0.00000000
Si       1.75451445       1.02431357       3.18708142       0.00000000
Si      -2.23687764      -1.02601588      -2.90284176       0.00000000
Si      -2.64997575       2.84819084      -0.31760290       0.00000000
