10
Lattice="16.28999089631971 0.0 0.0 0.0 16.28999089631971 0.0 0.0 0.0 34.32429715621058" Properties=species:S:1:pos:R:3:initial_magmoms:R:1 pbc="T T T"
Si       1.82320612       0.98424180      -1.23612160       0.00000000
Si      -0.96283089      -1.77710868      -1.34534158       0.00000000
Si       0.66875500      -0.95977422       2.16256923       0.00000000
Si      -1.89592209       1.65131730       0.05598296       0.00000000
Si      -1.17978111      -2.56896558       2.03711385       0.00000000
Si       0.47736868       2.25214137      -2.72998450       0.00000000
Si      -2.25102780      -0.45299232      -2.75013287       0.00000000
Si       0.22946583       0.96264126       3.50406648       0.00000000
Si      -2.67515424      -2.64510504       0.03068594       0.00000000
Si      -0.87956177       3.45833442      -1.22644215       0.00000000
