10
Lattice="16.28999089631971 0.0 0.0 0.0 16.28999089631971 0.0 0.0 0.0 34.32429715621058" Properties=species:S:1:pos:R:3:initial_magmoms:R:1 pbc="T T T"
Si       1.34909302       1.35518139      -1.33782455       0.00000000
Si      -1.35666378       1.35395964       1.35625671       0.00000000
Si       1.35773512      -1.35878148       1.35570752       0.00000000
Si      -1.36785501      -1.37062431      -1.36940979       0.00000000
Si      -0.14498100       2.52952749      -2.70617715       0.00000000
Si       2.57849427      -0.06768495      -2.69097835       0.00000000
Si      -2.71129131      -2.71529865       0.00024027       0.00000000
Si       0.00057015       2.71344159       2.71323423       0.00000000
Si      -2.71438641      -0.00135207       2.71354315       0.00000000
Si       2.71517715      -0.00115659       2.71381775       0.00000000
