10
Lattice="16.28999089631971 0.0 0.0 0.0 16.28999089631971 0.0 0.0 0.0 34.32429715621058" Properties=species:S:1:pos:R:3:initial_magmoms:R:1 pbc="T T T"
Si      -1.36839258      -1.35490446       1.34420888       0.00000000
Si       1.35496866      -1.35674523      -1.35735509       0.00000000
Si      -1.35788553       1.35575154      -1.35769833       0.00000000
Si       1.36000390       1.35022923       1.36435725       0.00000000
Si      -2.71262709      -2.71306692       0.00243703       0.00000000
Si       2.71392119       2.71293660       0.00085811       0.00000000
Si      -2.71365336       2.71417464       0.00576649       0.00000000
Si       2.71296008      -2.71492398       0.00470243       0.00000000
Si       2.71354652       0.00039096      -2.71436694       0.00000000
Si      -0.00021834       2.71414206      -2.71436694       0.00000000
