10
Lattice="16.28999089631971 0.0 0.0 0.0 16.28999089631971 0.0 0.0 0.0 34.32429715621058" Properties=species:S:1:pos:R:3:initial_magmoms:R:1 pbc="T T T"
Si       1.24768368      -1.24001109       1.64537043       0.00000000
Si       1.45155303      -0.12913083      -1.95703522       0.00000000
Si      -1.71693342      -1.81980477      -0.01513702       0.00000000
Si      -0.79128675       2.58994710       0.79285738       0.00000000
Si      -0.30266820      -1.03247649      -3.31459626       0.00000000
Si       0.46374372      -0.05872545       3.57031241       0.00000000
Si       0.56024568       2.32073856       2.86007366       0.00000000
Si      -1.26705249      -2.87612982      -2.04703358       0.00000000
Si       3.57694095      -0.81780687       1.49104830       0.00000000
Si      -3.84781203      -0.94669335      -0.30957101       0.00000000
