10
Lattice="16.28999089631971 0.0 0.0 0.0 16.28999089631971 0.0 0.0 0.0 34.32429715621058" Properties=species:S:1:pos:R:3:initial_magmoms:R:1 pbc="T T T"
Si      -2.08257876       0.42383322      -1.00807085       0.00000000
Si       0.83701278      -2.19857985      -0.23323373       0.00000000
Si      -0.73925649       0.14646339       2.25078272       0.00000000
Si       1.91686059       1.40320431      -0.11546700       0.00000000
Si       0.57933756       3.08946366       1.06707435       0.00000000
Si       3.01927072       0.62669259       1.81431471       0.00000000
Si       1.35272160      -0.03780909       3.32159842       0.00000000
Si      -1.14653907       2.48479515       2.48549239       0.00000000
Si      -1.00670571      -3.55364721      -0.74971172       0.00000000
Si      -3.77719488      -0.77059845       0.10551295       0.00000000
