10
Lattice="16.28999089631971 0.0 0.0 0.0 16.28999089631971 0.0 0.0 0.0 34.32429715621058" Properties=species:S:1:pos:R:3:initial_magmoms:R:1 pbc="T T T"
Si      -1.35834165      -1.35058761      -1.39157643       0.00000000
Si       1.35694071       1.36730115      -1.39572968       0.00000000
Si      -1.45515312       1.36762695       1.39624454       0.00000000
Si       1.35838516      -1.50833997       1.47055668       0.00000000
Si       2.70149843       2.69930187      -0.02155567       0.00000000
Si      -2.71254564      -2.71409319      -0.01551459       0.00000000
Si       2.71531561      -2.71453302      -0.03298567       0.00000000
Si      -2.72077209       2.72916144      -0.03658972       0.00000000
Si      -0.00257382      -2.70901071      -2.75504125       0.00000000
Si       2.71159335       0.00777033      -2.75438909       0.00000000
