10
Lattice="16.28999089631971 0.0 0.0 0.0 16.28999089631971 0.0 0.0 0.0 34.32429715621058" Properties=species:S:1:pos:R:3:initial_magmoms:R:1 pbc="T T T"
Si      -2.26224117      -0.26130789       0.72674875       0.00000000
Si      -0.25798473       2.08463130      -1.15830838       0.00000000
Si       0.55203552      -1.71913257      -1.58688179       0.00000000
Si       2.11392072       0.25132212       1.16558513       0.00000000
Si       2.74500576      -1.10280042      -2.24697272       0.00000000
Si       1.96025715       2.72648988      -1.63668638       0.00000000
Si       2.89394523       2.35804266       0.45726854       0.00000000
Si      -2.45610846       1.20311424       2.60651993       0.00000000
Si       3.71025831      -1.01501361      -0.08955214       0.00000000
Si      -2.74416453      -2.49453657       1.39696535       0.00000000
