10
Lattice="16.28999089631971 0.0 0.0 0.0 16.28999089631971 0.0 0.0 0.0 34.32429715621058" Properties=species:S:1:pos:R:3:initial_magmoms:R:1 pbc="T T T"
Si       0.93368808      -0.36844722       2.09395492       0.00000000
Si      -2.21824188      -0.64185858       0.47837800       0.00000000
Si       0.02386485       2.35530594      -0.34540560       0.00000000
Si       0.77186974      -1.58648310      -1.60195017       0.00000000
Si       0.48849771       1.70958663       3.01741632       0.00000000
Si      -1.55344698      -1.85013675      -2.67777721       0.00000000
Si      -3.23744202      -0.39490218      -1.60061152       0.00000000
Si      -2.99937996       1.38020283       1.55214558       0.00000000
Si      -2.26245294       2.91789738      -0.08814484       0.00000000
Si      -1.96025715      -2.72648988       1.63668638       0.00000000
