10
Lattice="16.28999089631971 0.0 0.0 0.0 16.28999089631971 0.0 0.0 0.0 34.32429715621058" Properties=species:S:1:pos:R:3:initial_magmoms:R:1 pbc="T T T"
Si       0.06983523      -2.32135758      -0.05392350       0.00000000
Si       1.34902377       0.95104278       1.65992394       0.00000000
Si      -2.29781853       0.19386729       0.41257828       0.00000000
Si       0.55563561       0.89919171      -2.09872600       0.00000000
Si      -2.52164313       2.45145182       0.92644762       0.00000000
Si      -2.09277630      -2.70808218      -1.25681917       0.00000000
Si       0.60170373       3.22948340      -1.70660501       0.00000000
Si       0.93934656      -0.34585299       3.59684511       0.00000000
Si      -3.39382602      -0.64234728      -1.47700966       0.00000000
Si       3.57166625       0.58147155       1.11396136       0.00000000
