10
Lattice="16.28999089631971 0.0 0.0 0.0 16.28999089631971 0.0 0.0 0.0 34.32429715621058" Properties=species:S:1:pos:R:3:initial_magmoms:R:1 pbc="T T T"
Si       0.53887320      -2.31420627      -0.15308645       0.00000000
Si       0.12882132       0.87232950      -2.22524543       0.00000000
Si      -1.89441297      -0.34959969       1.44237642       0.00000000
Si      -2.85448041       1.16017380      -0.09981511       0.00000000
Si      -0.60365853       0.92660778       2.91210044       0.00000000
Si       0.29080908       2.70603357       1.61052957       0.00000000
Si      -1.18351737       2.77315163      -1.86710551       0.00000000
Si       2.46266423       0.96228288      -2.67372695       0.00000000
Si      -0.92405025      -3.30905286      -1.65364259       0.00000000
Si       2.85596999      -2.47143735      -0.63956499       0.00000000
