10
Lattice="16.28999089631971 0.0 0.0 0.0 16.28999089631971 0.0 0.0 0.0 34.32429715621058" Properties=species:S:1:pos:R:3:initial_magmoms:R:1 pbc="T T T"
Si       1.45704276      -1.83156615      -0.31760290       0.00000000
Si      -1.71766158      -0.13032000      -1.63225854       0.00000000
Si      -1.61090833      -0.49449924       1.73873257       0.00000000
Si       1.72473633       1.78432515      -0.38261315       0.00000000
Si       0.34995807       2.39984280      -2.29406568       0.00000000
Si      -1.13710716       3.14906877      -0.51263366       0.00000000
Si       1.63955592       1.90443132       2.30999217       0.00000000
Si      -0.54367875       2.93034294       1.84596173       0.00000000
Si       1.82446371      -2.31985890       1.93417523       0.00000000
Si      -2.94056329       1.83524769      -1.20337621       0.00000000
