10
Lattice="16.28999089631971 0.0 0.0 0.0 16.28999089631971 0.0 0.0 0.0 34.32429715621058" Properties=species:S:1:pos:R:3:initial_magmoms:R:1 pbc="T T T"
Si       0.37457226       1.96698492       1.26193349       0.00000000
Si       0.36942462      -1.87911666       1.47306236       0.00000000
Si      -2.35035704      -0.54095832      -0.32553182       0.00000000
Si      -0.21686877      -1.00408302      -2.91039311       0.00000000
Si      -1.08473481       3.20515524      -0.33095506       0.00000000
Si      -2.11512618       0.47384352      -2.77827881       0.00000000
Si       0.85988394      -3.49687656      -0.19568293       0.00000000
Si      -3.55335073       0.87542460       1.23052674       0.00000000
Si      -2.72962571      -2.87945298       0.52159231       0.00000000
Si      -1.58043951      -2.68679115       2.57549075       0.00000000
