10
Lattice="16.28999089631971 0.0 0.0 0.0 16.28999089631971 0.0 0.0 0.0 34.32429715621058" Properties=species:S:1:pos:R:3:initial_magmoms:R:1 pbc="T T T"
Si      -1.45574608      -1.43021313       1.23062971       0.00000000
Si      -0.59342841       0.21872583      -2.35859540       0.00000000
Si       2.18323467      -1.02591162       0.46403043       0.00000000
Si      -0.44883837       2.24365428       1.12110082       0.00000000
Si       2.26841508      -1.14601779      -2.22857489       0.00000000
Si       0.54367875      -2.93034294      -1.84596173       0.00000000
Si      -0.62517762      -0.64022958       3.43213614       0.00000000
Si      -0.14906979       3.45571173      -0.90351898       0.00000000
Si      -1.06722958      -3.42484218      -0.10722916       0.00000000
Si      -1.39934684       2.40023376      -2.58637156       0.00000000
