10
Lattice="16.28999089631971 0.0 0.0 0.0 16.28999089631971 0.0 0.0 0.0 34.32429715621058" Properties=species:S:1:pos:R:3:initial_magmoms:R:1 pbc="T T T"
Si       1.43107650      -1.25643141       1.45121150       0.00000000
Si      -1.31074227       1.44063873       1.44285353       0.00000000
Si       0.74516976       1.91282623      -1.29140919       0.00000000
Si      -0.79475652      -1.97082936      -1.44401510       0.00000000
Si      -2.59501166      -2.62277145       0.07775831       0.00000000
Si       2.56815108       2.76123712       0.06796215       0.00000000
Si       2.81812113      -2.60371215       0.00228257       0.00000000
Si       0.05815530      -2.62544301       2.82903418       0.00000000
Si      -2.65534656       0.09415620       2.83033850       0.00000000
Si      -2.60687404       2.91201736      -0.02809445       0.00000000
