10
Lattice="16.28999089631971 0.0 0.0 0.0 16.28999089631971 0.0 0.0 0.0 34.32429715621058" Properties=species:S:1:pos:R:3:initial_magmoms:R:1 pbc="T T T"
Si      -1.35851662       1.35273789       1.35642833       0.00000000
Si       1.35737565      -1.36068741       1.35563887       0.00000000
Si      -1.35028136      -1.35101115      -1.37536506       0.00000000
Si       1.34460429       1.34648253      -1.38748497       0.00000000
Si      -2.71575055       0.06302601      -2.70299529       0.00000000
Si      -0.00034046       2.71200548       2.71471018       0.00000000
Si       2.71579875       2.71257075      -0.00113270       0.00000000
Si      -2.71705375       2.71161615      -0.00391297       0.00000000
Si       2.71464216      -0.00311139       2.71443558       0.00000000
Si      -2.71566910      -0.00325800       2.71436694       0.00000000
