10
Lattice="16.28999089631971 0.0 0.0 0.0 16.28999089631971 0.0 0.0 0.0 34.32429715621058" Properties=species:S:1:pos:R:3:initial_magmoms:R:1 pbc="T T T"
Si       1.35765747      -1.35466893       1.35502104       0.00000000
Si      -1.35826020      -1.35544911      -1.35776698       0.00000000
Si       1.35685926       1.35972467      -1.35793860       0.00000000
Si      -1.35967743       1.36037627       1.36126806       0.00000000
Si      -0.00053757      -2.72519550       2.69658694       0.00000000
Si       2.70762606       0.00752272       2.71532802       0.00000000
Si       2.71287144      -2.71037160      -0.00020595       0.00000000
Si      -0.00087966      -2.71248930      -2.71474450       0.00000000
Si       2.71371852       0.00317981      -2.71467585       0.00000000
Si      -2.71595188      -2.71377621      -0.00085811       0.00000000
