10
Lattice="16.28999089631971 0.0 0.0 0.0 16.28999089631971 0.0 0.0 0.0 34.32429715621058" Properties=species:S:1:pos:R:3:initial_magmoms:R:1 pbc="T T T"
Si       1.35728280       1.34113941       1.33988401       0.00000000
Si      -1.35813151       1.35255870      -1.35756104       0.00000000
Si       1.35725022      -1.36024758      -1.35639401       0.00000000
Si      -1.36863041      -1.38429162       1.37564995       0.00000000
Si       2.53195470      -0.16977438       2.69638099       0.00000000
Si       0.04882113       2.68460829       2.69840613       0.00000000
Si      -0.00043983       2.71088580      -2.71446991       0.00000000
Si      -2.71667420       2.70960971       0.00192216       0.00000000
Si       2.71547784       2.71166598      -0.00168189       0.00000000
Si       2.71407690      -0.00353493      -2.71443558       0.00000000
