10
Lattice="16.28999089631971 0.0 0.0 0.0 16.28999089631971 0.0 0.0 0.0 34.32429715621058" Properties=species:S:1:pos:R:3:initial_magmoms:R:1 pbc="T T T"
Si      -0.50347733       2.26071710      -0.24469805       0.00000000
Si       2.26433118      -0.41399406      -0.41178882       0.00000000
Si      -0.67883918      -0.55819314       2.19606976       0.00000000
Si       1.74630918      -1.62264690      -2.42109998       0.00000000
Si      -1.99885046       2.18457764      -2.25112596       0.00000000
Si      -1.10782004       3.07637369       1.89748253       0.00000000
Si      -2.96515697       0.00439830       2.45333051       0.00000000
Si      -0.70270403      -2.91349908       2.54147535       0.00000000
Si       0.53142053       0.45881194       3.97259340       0.00000000
Si       3.44063208      -2.12056704       0.62144175       0.00000000
