10
Lattice="16.290000149 0.0 0.0 0.0 16.290000149 0.0 0.0 0.0 29.1751946751" Properties=species:S:1:pos:R:3:initial_magmoms:R:1 pbc="T T T"
Si       1.22381884      -1.53008713       1.24286329       0.00000000
Si      -1.39448917      -1.34900749      -1.28863917       0.00000000
Si      -1.03726576       1.47364228       1.48425885       0.00000000
Si       1.37684710       1.31935969      -1.35976830       0.00000000
Si       0.77452435       2.22107636       2.86897194       0.00000000
Si      -2.34481520       0.15206715       2.90841681       0.00000000
Si      -0.03699459      -2.69944850      -2.62279165       0.00000000
Si      -0.01712079       2.60092658      -2.72257082       0.00000000
Si      -2.47024820       2.84447838       0.20845677       0.00000000
Si      -2.72878679      -0.00097740      -2.61520610       0.00000000
