10
Lattice="16.290000149 0.0 0.0 0.0 16.290000149 0.0 0.0 0.0 29.1751946751" Properties=species:S:1:pos:R:3:initial_magmoms:R:1 pbc="T T T"
Si      -1.09081099      -1.16867719       1.69820056       0.00000000
Si       0.85776625      -1.77591953      -1.30176801       0.00000000
Si       1.87209569       1.46657242       0.16218491       0.00000000
Si      -1.58773744       1.34485354      -1.18369600       0.00000000
H        0.47175840       2.29144916       1.76121898       0.00000000
H       -1.24651081      -0.37017396       2.97260224       0.00000000
H        2.59419881       1.54219060       1.48694297       0.00000000
Si       1.98089660      -0.33730074      -2.84924951       0.00000000
Si      -3.30245544      -1.09617040       0.91286267       0.00000000
Si      -0.28018800       2.66642867      -2.60785395       0.00000000
