10
Lattice="16.290000149 0.0 0.0 0.0 16.290000149 0.0 0.0 0.0 29.1751946751" Properties=species:S:1:pos:R:3:initial_magmoms:R:1 pbc="T T T"
Si       1.07639434      -1.42783480      -1.49572471       0.00000000
Si      -1.55310490       1.31913163      -1.18156621       0.00000000
Si      -1.04751217      -1.75612718       1.18786805       0.00000000
Si       2.12325491       0.96360238       0.68342894       0.00000000
Si       0.21214467       0.80259202       3.39383370       0.00000000
Si       2.37312722      -2.72160290      -0.06949531       0.00000000
Si      -0.21124872       2.69656517      -2.49657976       0.00000000
Si       2.49113198      -0.10231749      -2.73508698       0.00000000
Si      -1.40944339      -0.88190803       3.32430921       0.00000000
Si       0.54411858      -3.54366147       1.10136360       0.00000000
