10
Lattice="16.290000149 0.0 0.0 0.0 16.290000149 0.0 0.0 0.0 29.1751946751" Properties=species:S:1:pos:R:3:initial_magmoms:R:1 pbc="T T T"
Si      -1.35635428      -1.31468446       1.39863549       0.00000000
Si       1.34359921       1.36919080       1.36336268       0.00000000
Si      -1.37297008       1.35167905      -1.36160925       0.00000000
Si       1.42731352      -1.37556019      -1.29310298       0.00000000
Si      -2.67669137      -2.65579130       0.00480807       0.00000000
Si      -2.54664830      -0.11590335      -2.81096582       0.00000000
Si       2.68534136      -0.00715131      -2.71932654       0.00000000
Si       2.71070489       2.71911053       0.01263286       0.00000000
Si      -0.00444717      -2.68263722       2.75429009       0.00000000
Si       2.80196148      -2.64029951       0.12394498       0.00000000
