10
Lattice="16.290000149 0.0 0.0 0.0 16.290000149 0.0 0.0 0.0 29.1751946751" Properties=species:S:1:pos:R:3:initial_magmoms:R:1 pbc="T T T"
Si      -1.39887118       1.42480486      -1.22337426       0.00000000
Si      -1.32704857      -1.38199474       1.37598095       0.00000000
Si       1.19873224      -1.47242053      -1.43028474       0.00000000
Si       1.30798927       1.44681265       1.36982207       0.00000000
H        3.22201542       1.73151299      -0.50794014       0.00000000
Si      -0.00548973       2.65706192      -2.65100406       0.00000000
Si       2.66954006      -2.68180643       0.02506149       0.00000000
Si       2.53265519      -0.14107140      -2.82707636       0.00000000
Si      -2.90212869       0.13910031      -2.50895004       0.00000000
Si       2.73492813       0.07959294       2.70418169       0.00000000
