10
Lattice="16.290000149 0.0 0.0 0.0 16.290000149 0.0 0.0 0.0 29.1751946751" Properties=species:S:1:pos:R:3:initial_magmoms:R:1 pbc="T T T"
Si      -1.34304535       1.35666379      -1.36968786       0.00000000
Si       1.32798362      -1.34897491      -1.39457431       0.00000000
Si       1.34700219       1.38489436       1.34500565       0.00000000
Si      -1.34136748      -1.37199268       1.36601179       0.00000000
Si       2.66698253      -2.70718625      -0.03054643       0.00000000
Si      -2.68763825       2.72070695      -0.01867212       0.00000000
Si      -2.70845687      -2.70962975      -0.00886926       0.00000000
Si       2.71782362       0.04720842       2.70141880       0.00000000
Si      -2.72619668      -0.02920797       2.70168138       0.00000000
Si       0.00449694       2.70837542      -2.72948534       0.00000000
