10
Lattice="16.290000149 0.0 0.0 0.0 16.290000149 0.0 0.0 0.0 29.1751946751" Properties=species:S:1:pos:R:3:initial_magmoms:R:1 pbc="T T T"
Si      -1.33195186       1.37150398      -1.36779148       0.00000000
Si       1.37247161       1.37176788       1.32901764       0.00000000
Si       1.37249604      -1.33656193      -1.37925733       0.00000000
Si      -1.37759644      -1.32312268       1.39460348       0.00000000
Si      -2.63552654      -2.69008175      -0.06042183       0.00000000
Si       0.06194233      -2.66989844       2.68248410       0.00000000
Si      -0.02624319       2.70765866       2.67603638       0.00000000
Si      -2.66375711       0.01712079      -2.75057900       0.00000000
Si      -2.70427034       2.71081892      -0.00291752       0.00000000
Si       2.76314241      -2.67778280      -0.04460887       0.00000000
