10
Lattice="16.290000149 0.0 0.0 0.0 16.290000149 0.0 0.0 0.0 29.1751946751" Properties=species:S:1:pos:R:3:initial_magmoms:R:1 pbc="T T T"
Si       0.43872228      -0.24824331       2.28301617       0.00000000
Si      -1.71740585       1.63116658       0.10260916       0.00000000
Si      -0.04833243      -2.29469087      -0.66315217       0.00000000
Si       1.86970106       0.89630839      -1.27775683       0.00000000
H       -0.91294048       0.16728201      -2.53100649       0.00000000
Si       2.15580233      -2.67618638       0.13823207       0.00000000
Si      -0.32218362       3.36702900      -0.81643865       0.00000000
Si       2.07179480      -1.98364961       2.36727238       0.00000000
Si       3.46414998       1.71017309       0.28232836       0.00000000
Si      -3.77682024       0.62444458      -0.61510063       0.00000000
