10
Lattice="16.290000149 0.0 0.0 0.0 16.290000149 0.0 0.0 0.0 29.1751946751" Properties=species:S:1:pos:R:3:initial_magmoms:R:1 pbc="T T T"
Si      -1.29858180       1.35368272       1.39439925       0.00000000
Si       1.33920906      -1.32369283       1.38646360       0.00000000
Si       1.34398203       1.37531584      -1.35022801       0.00000000
Si      -1.37558463      -1.36386397      -1.33222691       0.00000000
Si       2.63608855       0.15314229       2.66360775       0.00000000
Si       0.02313017      -2.69975476      -2.67924565       0.00000000
Si      -2.68047880       0.02269197      -2.70185643       0.00000000
Si      -2.67666694       2.72321561       0.06430213       0.00000000
Si      -0.05826281      -2.62457966       2.77362741       0.00000000
Si       2.72394052       0.03165147      -2.70777899       0.00000000
