10
Lattice="16.290000149 0.0 0.0 0.0 16.290000149 0.0 0.0 0.0 29.1751946751" Properties=species:S:1:pos:R:3:initial_magmoms:R:1 pbc="T T T"
Si      -0.93113641       0.81072073       1.99701290       0.00000000
Si       1.36865323       1.38551338      -1.32849249       0.00000000
Si      -1.86851189      -0.90508055      -1.11811016       0.00000000
Si       1.84037906      -1.17608914       0.93354788       0.00000000
H        2.64741824       1.41695308      -0.50572282       0.00000000
H       -2.92355004       0.19958345      -1.08911002       0.00000000
Si       0.52607089      -2.60509682       2.28027487       0.00000000
Si       1.96217939      -0.12824140      -3.09289156       0.00000000
Si       0.40277351       2.78827788       2.48353845       0.00000000
Si      -0.64522182      -1.01452182       3.56716353       0.00000000
