10
Lattice="16.290000149 0.0 0.0 0.0 16.290000149 0.0 0.0 0.0 29.1751946751" Properties=species:S:1:pos:R:3:initial_magmoms:R:1 pbc="T T T"
Si       1.38536840      -1.44156727       1.16064759       0.00000000
Si      -1.22982524      -1.36185916      -1.44574760       0.00000000
Si       1.39747187       1.30088683      -1.38716381       0.00000000
Si      -1.22203269       1.28627470       1.59381171       0.00000000
H        1.63023968       1.54425943       2.12506283       0.00000000
Si       2.22800124       0.22572402       2.55583458       0.00000000
Si      -2.50942402       2.64036467       0.09951659       0.00000000
Si      -2.54003293      -2.69645114      -0.07576798       0.00000000
Si       0.05826281       2.62457966      -2.77362741       0.00000000
Si      -2.70136910      -0.07173464      -2.71877804       0.00000000
