10
Lattice="16.290000149 0.0 0.0 0.0 16.290000149 0.0 0.0 0.0 29.1751946751" Properties=species:S:1:pos:R:3:initial_magmoms:R:1 pbc="T T T"
Si      -1.46317759      -1.38070783       1.21821025       0.00000000
Si       1.33882624      -1.33030657      -1.40892850       0.00000000
Si      -1.34759515       1.34977312      -1.38841834       0.00000000
Si       1.41138190       1.39489642       1.30054265       0.00000000
Si      -0.11290599       2.66491370       2.51501848       0.00000000
Si      -0.03748329      -2.59256981       2.59711748       0.00000000
Si       2.75719656       2.68594409      -0.06993294       0.00000000
Si      -2.80354161      -0.07741008       2.64134707       0.00000000
Si      -0.00974142       2.70459373      -2.75364240       0.00000000
Si       2.77739616      -2.68713326      -0.15815873       0.00000000
