10
Lattice="16.290000149 0.0 0.0 0.0 16.290000149 0.0 0.0 0.0 29.1751946751" Properties=species:S:1:pos:R:3:initial_magmoms:R:1 pbc="T T T"
Si      -1.25341777       1.10574403      -1.60381880       0.00000000
Si      -1.89553700      -0.01638285       1.33812030       0.00000000
Si       1.57317418       1.68848621       0.44156657       0.00000000
Si       0.43517106      -2.28967844       0.29983348       0.00000000
H        1.82661401       0.57058332      -2.36841313       0.00000000
H       -2.07397766       1.37148281       1.94811527       0.00000000
Si      -1.06106545      -1.26145363       3.05044457       0.00000000
Si       2.04923315      -2.46401402      -1.37785692       0.00000000
Si       0.84361024       2.32115723       2.62080482       0.00000000
Si      -2.58577688       2.65363614      -0.44775171       0.00000000
