10
Lattice="16.290000149 0.0 0.0 0.0 16.290000149 0.0 0.0 0.0 29.1751946751" Properties=species:S:1:pos:R:3:initial_magmoms:R:1 pbc="T T T"
Si       1.53810181      -1.27081549      -1.19787514       0.00000000
Si       1.39572721       1.32116788       1.36520655       0.00000000
Si      -1.21635802      -1.43431822       1.44300221       0.00000000
Si      -1.47080782       1.20938590      -1.45534624       0.00000000
H        0.35940627      -1.80672392      -2.25352121       0.00000000
Si      -2.66954006       2.68180643      -0.02506149       0.00000000
Si       2.85576849       2.50038470      -0.05021051       0.00000000
Si      -2.64813500      -0.06279795       2.72725344       0.00000000
Si      -0.13688487       2.54073503      -2.85213786       0.00000000
Si       0.06538806       2.76139938       2.67912020       0.00000000
