10
Lattice="16.290000149 0.0 0.0 0.0 16.290000149 0.0 0.0 0.0 29.1751946751" Properties=species:S:1:pos:R:3:initial_magmoms:R:1 pbc="T T T"
Si       1.35982405       1.36500427       1.33068063       0.00000000
Si       1.36599796      -1.34693866      -1.35019883       0.00000000
Si      -1.32810742       1.36691020      -1.37668991       0.00000000
Si      -1.35782038      -1.37850868       1.35402078       0.00000000
Si       2.69558777      -0.01066995       2.68435131       0.00000000
Si      -0.00237834      -2.69576696      -2.68846501       0.00000000
Si      -2.70686045       0.00316026      -2.68134627       0.00000000
Si      -2.71305065       2.68149692      -0.01864295       0.00000000
Si       0.01425375       2.71427240       2.69730510       0.00000000
Si       2.69840594       2.72240111      -0.04980206       0.00000000
