10
Lattice="16.290000149 0.0 0.0 0.0 16.290000149 0.0 0.0 0.0 29.1751946751" Properties=species:S:1:pos:R:3:initial_magmoms:R:1 pbc="T T T"
Si       1.34557030      -1.34926813      -1.36662447       0.00000000
Si      -1.36435267      -1.37542987       1.33257702       0.00000000
Si      -1.35638686       1.32864499      -1.38853504       0.00000000
Si       1.36708939       1.33763707       1.37488105       0.00000000
Si      -0.01773981       2.68042178       2.71055064       0.00000000
Si      -2.72938953      -0.01694160       2.66296589       0.00000000
Si       2.68133402      -2.72494235      -0.01295379       0.00000000
Si      -0.01425375      -2.71427240      -2.69730510       0.00000000
Si      -2.73540054       2.67538817      -0.06684037       0.00000000
Si       2.70845687       2.70962975       0.00886926       0.00000000
