10
Lattice="16.290000149 0.0 0.0 0.0 16.290000149 0.0 0.0 0.0 29.1751946751" Properties=species:S:1:pos:R:3:initial_magmoms:R:1 pbc="T T T"
H        1.27876501       0.03143970       0.82276966       0.00000000
Si      -1.36865323      -1.38551338       1.32849249       0.00000000
Si       0.59352616      -1.51375478      -1.76439907       0.00000000
Si      -0.80697240       2.26061219       0.22199406       0.00000000
Si       0.52268094       1.98620714      -1.66569939       0.00000000
Si       0.47172582      -2.56160252       2.26204037       0.00000000
Si       2.73432540       1.91370035      -0.88036150       0.00000000
H       -3.08294769       0.96003487      -1.48790575       0.00000000
Si       3.58911057      -0.16676073      -0.09429423       0.00000000
Si       2.66066201      -2.24063902      -0.91788080       0.00000000
