10
Lattice="16.290000149 0.0 0.0 0.0 16.290000149 0.0 0.0 0.0 29.1751946751" Properties=species:S:1:pos:R:3:initial_magmoms:R:1 pbc="T T T"
Si      -0.73705735       1.32235705      -1.79112355       0.00000000
Si      -1.51462792      -1.85073624      -0.06978707       0.00000000
Si       1.99607888      -0.88526703      -0.97906118       0.00000000
Si      -0.62486812       1.07268022       2.04909062       0.00000000
H        2.44579691       1.36401058       1.05258267       0.00000000
H        1.23654133      -0.78195422       2.77987090       0.00000000
Si      -2.49206051       2.29472345      -0.52678732       0.00000000
Si       0.80464456      -2.03480819      -2.66912186       0.00000000
Si      -0.63214975      -0.40896045      -3.59727233       0.00000000
Si       2.56994300      -2.62304840       0.54335883       0.00000000
