10
Lattice="16.290000149 0.0 0.0 0.0 16.290000149 0.0 0.0 0.0 29.1751946751" Properties=species:S:1:pos:R:3:initial_magmoms:R:1 pbc="T T T"
Si       1.36006840       1.35438319       1.35375821       0.00000000
Si      -1.33095654      -1.35793441       1.38313763       0.00000000
Si       1.37841094      -1.35876520      -1.33663237       0.00000000
Si      -1.36880473       1.34806267      -1.36490313       0.00000000
Si      -2.66630259      -2.73484667       0.03836538       0.00000000
Si      -0.00845451       2.70777269       2.70582425       0.00000000
Si       2.71547786       2.69829191      -0.02196892       0.00000000
Si      -0.02287116       2.67802715      -2.74537998       0.00000000
Si      -2.71922456       0.00270414       2.70646611       0.00000000
Si       2.70800075      -0.00648342       2.71915732       0.00000000
