10
Lattice="16.290000149 0.0 0.0 0.0 16.290000149 0.0 0.0 0.0 29.1751946751" Properties=species:S:1:pos:R:3:initial_magmoms:R:1 pbc="T T T"
Si       1.83252728       1.02200203      -0.94174319       0.00000000
Si       1.40612023      -1.36414090       1.25383317       0.00000000
Si      -1.32067918       1.48870123       1.20810688       0.00000000
Si      -1.30412854      -1.18407124      -1.55288591       0.00000000
Si       0.99805573       2.26707280      -2.65406746       0.00000000
Si      -2.67006134       0.09343944       2.51881126       0.00000000
Si      -2.62532900      -2.58765023      -0.21065658       0.00000000
Si       0.05048271      -2.70417260       2.56951775       0.00000000
Si       2.74460439      -2.51788016      -0.30273349       0.00000000
Si       2.82825354       0.09550827       2.47837444       0.00000000
