10
Lattice="16.290000149 0.0 0.0 0.0 16.290000149 0.0 0.0 0.0 29.1751946751" Properties=species:S:1:pos:R:3:initial_magmoms:R:1 pbc="T T T"
Si       1.35417142       1.35369901      -1.33601969       0.00000000
Si       1.39652542      -1.45150417       1.19209845       0.00000000
Si      -1.37650501      -1.36598167      -1.33704082       0.00000000
Si      -1.30585528       1.34737849       1.43060567       0.00000000
Si      -0.01821222      -2.77702149       2.43146072       0.00000000
Si       2.65947284       2.66765857       0.11071986       0.00000000
Si      -0.02070459       2.70109379      -2.67128082       0.00000000
Si       2.70757721      -0.03158631      -2.67276876       0.00000000
Si      -2.64771146      -0.03005505       2.74561922       0.00000000
Si      -2.70752834       2.68934056       0.07264623       0.00000000
