10
Lattice="16.290000149 0.0 0.0 0.0 16.290000149 0.0 0.0 0.0 29.1751946751" Properties=species:S:1:pos:R:3:initial_magmoms:R:1 pbc="T T T"
Si       1.35228830       1.35252613       1.36140211       0.00000000
Si       1.38826802      -1.36063855      -1.32332848       0.00000000
Si      -1.33858189      -1.35739684       1.38048269       0.00000000
Si      -1.34509789       1.38054493      -1.35533367       0.00000000
Si      -2.68962563       2.71151939       0.03054643       0.00000000
Si       0.05292198      -2.73755081      -2.66810073       0.00000000
Si      -2.70181055       0.03140712      -2.70970456       0.00000000
Si       2.71077005       2.70506855      -0.00064185       0.00000000
Si       2.69128721      -0.00568521       2.72542999       0.00000000
Si      -2.69840594      -2.72240111       0.04980206       0.00000000
