10
Lattice="16.290000149 0.0 0.0 0.0 16.290000149 0.0 0.0 0.0 29.1751946751" Properties=species:S:1:pos:R:3:initial_magmoms:R:1 pbc="T T T"
Si      -1.42569430       1.21186198      -1.37890723       0.00000000
Si      -1.30780357      -1.49667634       1.26188552       0.00000000
Si       1.52902828      -1.31914792      -1.23233105       0.00000000
Si       0.65555848       1.87587497       1.29914224       0.00000000
Si       0.03748329       2.59256981      -2.59711748       0.00000000
Si       0.23407101      -2.56295459       2.65380488       0.00000000
Si      -2.76605832       2.51515973       0.04422960       0.00000000
Si       0.12132792      -2.71938746      -2.58696451       0.00000000
Si      -2.71513577      -0.19741851      -2.69727592       0.00000000
Si      -0.99735526       3.52719228       1.19848782       0.00000000
