10
Lattice="16.290000149 0.0 0.0 0.0 16.290000149 0.0 0.0 0.0 29.1751946751" Properties=species:S:1:pos:R:3:initial_magmoms:R:1 pbc="T T T"
Si       1.30805443       1.34393479      -1.42503321       0.00000000
Si      -1.34025976      -1.34981463      -1.39092741       0.00000000
Si       1.42667821      -1.36846427       1.29278205       0.00000000
Si      -1.43132086       1.35295945       1.32992207       0.00000000
Si       0.08086356      -2.65951194       2.66325765       0.00000000
Si       2.59428026       2.77994717      -0.10374699       0.00000000
Si      -2.67811349      -2.70463524      -0.02570335       0.00000000
Si       2.67546962      -0.04695267       2.76586681       0.00000000
Si      -0.13444137       2.82979457       2.60706622       0.00000000
Si      -2.77052992       2.67665228      -0.05654153       0.00000000
