10
Lattice="16.290000149 0.0 0.0 0.0 16.290000149 0.0 0.0 0.0 29.1751946751" Properties=species:S:1:pos:R:3:initial_magmoms:R:1 pbc="T T T"
Si       1.32565089      -1.35935164       1.36773313       0.00000000
Si      -1.34268371      -1.36155079      -1.35387491       0.00000000
Si      -1.31701067       1.33525873       1.41021221       0.00000000
Si       1.35142167       1.36583506      -1.36259829       0.00000000
Si       2.65468684       0.06709851       2.67834122       0.00000000
Si      -2.65692835       2.70102863       0.03395993       0.00000000
Si      -2.67844744       0.01412343      -2.70754559       0.00000000
Si       2.70560938      -2.70301601       0.01018214       0.00000000
Si      -2.69880994      -2.71197551       0.01610471       0.00000000
Si       0.02338755      -2.71272485      -2.70369447       0.00000000
