10
Lattice="16.290000149 0.0 0.0 0.0 16.290000149 0.0 0.0 0.0 29.1751946751" Properties=species:S:1:pos:R:3:initial_magmoms:R:1 pbc="T T T"
Si       1.36093177       1.36212094      -1.34392617       0.00000000
Si      -1.36472734      -1.35560494      -1.34725214       0.00000000
Si       1.35348724      -1.37601631       1.33952071       0.00000000
Si      -1.37490859       1.36332640       1.33342310       0.00000000
Si      -0.02239875       2.70044219      -2.69427088       0.00000000
Si       2.73038321      -0.01651806      -2.66684619       0.00000000
Si       2.72888453      -0.03582171       2.67346896       0.00000000
Si       0.00376299      -2.71844264      -2.68543079       0.00000000
Si      -0.02567304       2.72632700       2.68050019       0.00000000
Si      -2.71290404      -2.70301601       0.03124663       0.00000000
