10
Lattice="16.290000149 0.0 0.0 0.0 16.290000149 0.0 0.0 0.0 29.1751946751" Properties=species:S:1:pos:R:3:initial_magmoms:R:1 pbc="T T T"
Si      -1.33180525      -1.35438319      -1.38278753       0.00000000
Si       1.33195186      -1.37150398       1.36779148       0.00000000
Si       1.35277048       1.35285193      -1.37097157       0.00000000
Si      -1.37231848       1.33931494       1.36487396       0.00000000
Si       0.00081450       2.72271062       2.67419834       0.00000000
Si       2.70442347       0.00026390       2.69680912       0.00000000
Si      -2.69646743       2.70529661      -0.02611180       0.00000000
Si      -2.69063561      -2.71717202      -0.03859878       0.00000000
Si       2.70444791      -2.70806591      -0.01146585       0.00000000
Si      -2.69154785      -0.00062228      -2.73482440       0.00000000
