10
Lattice="16.290000149 0.0 0.0 0.0 16.290000149 0.0 0.0 0.0 29.1751946751" Properties=species:S:1:pos:R:3:initial_magmoms:R:1 pbc="T T T"
H        1.21497337      -1.95212846       0.21814293       0.00000000
H       -1.98167852      -0.62103997      -1.07379304       0.00000000
Si       1.87693382       0.71003224       1.27475178       0.00000000
Si      -0.76491325      -1.86983138       1.28131620       0.00000000
Si       0.63366472      -0.33718671      -2.33074795       0.00000000
Si      -1.78012235       1.54991206       0.63208059       0.00000000
H       -2.63445140      -0.20191455      -1.12730035       0.00000000
H        2.32337756       1.99399376       0.60885714       0.00000000
H       -0.43398189       2.16857369      -2.20911657       0.00000000
H        2.85075003       0.45305748      -1.20782388       0.00000000
