10
Lattice="16.290000149 0.0 0.0 0.0 16.290000149 0.0 0.0 0.0 29.1751946751" Properties=species:S:1:pos:R:3:initial_magmoms:R:1 pbc="T T T"
Si       0.08400753      -0.69253678      -2.22904031       0.00000000
Si      -0.98937316      -1.78759294       1.15100811       0.00000000
Si       1.83912473       0.88143562       1.18508766       0.00000000
Si      -1.63307251       1.73540630      -0.08425621       0.00000000
H        2.53384436      -0.94630240      -0.73640817       0.00000000
Si      -2.30501873      -0.46470483       2.55139411       0.00000000
Si       0.55146538       2.33025194       2.51283618       0.00000000
Si      -2.12012723      -0.31104126      -3.03042455       0.00000000
Si      -2.07179480       1.98364961      -2.36727238       0.00000000
Si       2.02204514       0.33585093      -3.13227516       0.00000000
