10
Lattice="16.290000149 0.0 0.0 0.0 16.290000149 0.0 0.0 0.0 29.1751946751" Properties=species:S:1:pos:R:3:initial_magmoms:R:1 pbc="T T T"
Si      -0.65291950       0.42409386      -2.13157765       0.00000000
Si      -1.90731467      -0.79040710       1.12232014       0.00000000
Si       0.85758706       1.93609910       1.04040495       0.00000000
Si       1.70499287      -1.66847069      -0.12648614       0.00000000
H       -1.21259503      -2.61814511      -0.79917569       0.00000000
Si       2.17228781       0.67219057       2.51302290       0.00000000
Si      -0.65831149      -2.16161786       2.53490138       0.00000000
Si       3.43042968      -0.72850510       1.14856615       0.00000000
Si       0.83970064      -3.39711500       1.25507603       0.00000000
Si      -2.35408421       2.02197998      -2.14771153       0.00000000
