10
Lattice="16.290000149 0.0 0.0 0.0 16.290000149 0.0 0.0 0.0 29.1751946751" Properties=species:S:1:pos:R:3:initial_magmoms:R:1 pbc="T T T"
Si       1.25341777      -1.10574403       1.60381880       0.00000000
Si      -1.80993305      -1.32642629      -0.60576457       0.00000000
Si       1.21862233       1.31947372      -1.49537460       0.00000000
Si      -1.33235911       1.54789210       1.15606709       0.00000000
Si      -0.64211923      -1.12212689       2.94193911       0.00000000
H        3.08003178      -0.53516071      -0.76459433       0.00000000
Si      -0.19228716      -2.85566961      -1.68031616       0.00000000
Si       2.75501370       2.04563306       0.11448346       0.00000000
Si      -3.02980971       0.54564985      -1.55687591       0.00000000
Si      -2.54211968      -1.67081482       1.65595487       0.00000000
