10
Lattice="16.290000149 0.0 0.0 0.0 16.290000149 0.0 0.0 0.0 29.1751946751" Properties=species:S:1:pos:R:3:initial_magmoms:R:1 pbc="T T T"
Si       1.33035544      -1.41953342      -1.28580918       0.00000000
Si      -1.34794864      -1.37378621       1.33759515       0.00000000
Si       1.38513871       1.35021295       1.32475806       0.00000000
Si      -1.30007233       1.34990344      -1.41808951       0.00000000
Si       2.66437613      -0.07921827      -2.61366565       0.00000000
Si       0.01210347       2.69557148       2.66168219       0.00000000
Si      -2.67869504       2.69847110      -0.06815325       0.00000000
Si      -2.70790301      -0.01617597       2.67650318       0.00000000
Si      -2.72877051      -0.05414796      -2.65994043       0.00000000
Si       0.03383433      -2.73294075       2.66060270       0.00000000
