10
Lattice="16.290000149 0.0 0.0 0.0 16.290000149 0.0 0.0 0.0 29.1751946751" Properties=species:S:1:pos:R:3:initial_magmoms:R:1 pbc="T T T"
Si      -1.34258923      -1.33126768       1.37409332       0.00000000
Si       1.36503685      -1.35848827      -1.33038888       0.00000000
Si       1.36145305       1.30474756       1.39189019       0.00000000
Si      -1.35562123       1.33566598      -1.37666074       0.00000000
Si      -0.06590934       2.75248875       2.51172168       0.00000000
Si      -0.00887805      -2.72593604      -2.65619725       0.00000000
Si      -2.77627215       0.04098564       2.61173425       0.00000000
Si       2.72938953       0.01694160      -2.66296589       0.00000000
Si       2.71896392      -2.68791518       0.05794194       0.00000000
Si       2.71164971       2.69736338       0.04758474       0.00000000
