10
Lattice="16.290000149 0.0 0.0 0.0 16.290000149 0.0 0.0 0.0 29.1751946751" Properties=species:S:1:pos:R:3:initial_magmoms:R:1 pbc="T T T"
Si      -1.33944526      -1.33001335      -1.40227656       0.00000000
Si       1.37808514      -1.36953289       1.33009713       0.00000000
Si      -1.36640521       1.34807896       1.37645651       0.00000000
Si       1.37798740       1.34671060      -1.37205106       0.00000000
Si       2.70269836       0.14779917       2.57392320       0.00000000
Si      -2.67037085      -2.67770135      -0.01797192       0.00000000
Si      -2.69695613       2.66264939      -0.06832831       0.00000000
Si       2.67666694      -2.72321561      -0.06430213       0.00000000
Si       0.02357163       2.73658971       2.69219944       0.00000000
Si      -2.72218934      -0.03486060       2.72814328       0.00000000
