10
Lattice="16.290000149 0.0 0.0 0.0 16.290000149 0.0 0.0 0.0 29.1751946751" Properties=species:S:1:pos:R:3:initial_magmoms:R:1 pbc="T T T"
Si      -1.21862233      -1.31947372       1.49537460       0.00000000
Si       1.53639136       0.72615934       1.60985807       0.00000000
Si       0.62486812      -1.07268022      -2.04909062       0.00000000
Si      -1.48519189       1.86947300      -0.35269893       0.00000000
H        1.86140945      -1.85463444       0.73078028       0.00000000
H        3.07066503       0.29133036      -0.99650795       0.00000000
Si      -1.86719240       1.22204323      -2.57587794       0.00000000
Si       3.15433047       1.39264840       0.03687745       0.00000000
Si       0.30740859       2.57733866       2.27397302       0.00000000
Si      -2.55098144       0.22841838       2.65144169       0.00000000
