10
Lattice="16.290000149 0.0 0.0 0.0 16.290000149 0.0 0.0 0.0 29.1751946751" Properties=species:S:1:pos:R:3:initial_magmoms:R:1 pbc="T T T"
Si      -1.32462136      -1.33625763      -1.33746970       0.00000000
Si       1.31687644      -1.43554323       1.27545199       0.00000000
Si      -1.44291934       1.33147619       1.28257073       0.00000000
Si       1.29912150       1.29076748      -1.47175728       0.00000000
Si       2.63088878      -0.05144056       2.63895471       0.00000000
Si      -0.07454304       2.68030450       2.62083691       0.00000000
Si      -2.74150928       0.00703565      -2.59154793       0.00000000
Si       2.66135434       2.68594084      -0.15375328       0.00000000
Si      -0.15078024       2.67564556      -2.69805782       0.00000000
Si      -0.08154774      -2.77106260       2.60922519       0.00000000
