10
Lattice="16.290000149 0.0 0.0 0.0 16.290000149 0.0 0.0 0.0 29.1751946751" Properties=species:S:1:pos:R:3:initial_magmoms:R:1 pbc="T T T"
Si      -1.36503685       1.35848827       1.33038888       0.00000000
Si      -1.37391490      -1.36744777      -1.32580837       0.00000000
Si       1.35392707      -1.32942691       1.38833081       0.00000000
Si       1.36435267       1.37542987      -1.33257702       0.00000000
Si      -0.00358380       2.66323583       2.72227906       0.00000000
Si       2.68956047      -2.69993720       0.02444881       0.00000000
Si      -0.00772146      -2.71735121      -2.67586133       0.00000000
Si       2.70992297       0.02616174      -2.69920149       0.00000000
Si      -2.70762608       0.02722059       2.70448220       0.00000000
Si      -2.72065808       2.69415425      -0.04627186       0.00000000
