10
Lattice="16.290000149 0.0 0.0 0.0 16.290000149 0.0 0.0 0.0 29.1751946751" Properties=species:S:1:pos:R:3:initial_magmoms:R:1 pbc="T T T"
Si      -0.63322489       0.40410603      -2.14784866       0.00000000
Si       1.48061440      -1.80455735       0.11535872       0.00000000
Si       0.96576895       1.99736579       0.87788161       0.00000000
Si      -2.11690181      -0.58362184       1.01004524       0.00000000
H        0.07802910      -0.83137645       2.56654188       0.00000000
H        0.73080199      -1.25050186       2.62004918       0.00000000
H        2.27849861       1.53911179       1.48472566       0.00000000
H        2.83682208       1.42089526      -0.84908569       0.00000000
Si      -2.35509419       1.55277910       1.91284246       0.00000000
Si      -0.18039546      -3.32425146       0.85649619       0.00000000
