10
Lattice="16.290000149 0.0 0.0 0.0 16.290000149 0.0 0.0 0.0 29.1751946751" Properties=species:S:1:pos:R:3:initial_magmoms:R:1 pbc="T T T"
Si       1.33899892      -1.35821134       1.36402788       0.00000000
Si      -1.35228830      -1.35252613      -1.36140211       0.00000000
Si      -1.32798362       1.34897491       1.39457431       0.00000000
Si       1.35848176       1.35254242      -1.36204396       0.00000000
Si      -2.67102897       2.70563870       0.02488644       0.00000000
Si       2.68877204       0.02839347       2.68811491       0.00000000
Si       0.03597972      -2.71316468      -2.68473059       0.00000000
Si      -2.69087019      -2.70992297       0.01908058       0.00000000
Si      -2.69738619       0.02801880      -2.71673578       0.00000000
Si       2.69936054       2.71521722       0.00326762       0.00000000
