10
Lattice="16.290000149 0.0 0.0 0.0 16.290000149 0.0 0.0 0.0 29.1751946751" Properties=species:S:1:pos:R:3:initial_magmoms:R:1 pbc="T T T"
Si       1.34634831       1.21305457       1.48229828       0.00000000
Si       1.17129271      -1.59057500      -1.28688866       0.00000000
Si      -1.47804938      -1.30807382       1.37224361       0.00000000
Si      -0.28591459       1.82524255      -1.57015063       0.00000000
Si       2.48560088      -0.16156732      -2.63361565       0.00000000
Si       2.68178135       2.61995021       0.12965165       0.00000000
Si       0.64522182       1.01452182      -3.56716353       0.00000000
Si      -0.08599343       2.51976671       2.83429722       0.00000000
Si       2.52811778      -2.83286670       0.17076183       0.00000000
Si       2.62522247      -0.16041073       2.86941541       0.00000000
