10
Lattice="16.290000149 0.0 0.0 0.0 16.290000149 0.0 0.0 0.0 29.1751946751" Properties=species:S:1:pos:R:3:initial_magmoms:R:1 pbc="T T T"
Si       1.36539523      -1.35799957       1.32869672       0.00000000
Si       1.36790389       1.34402275      -1.34313844       0.00000000
Si      -1.34087878      -1.36267480      -1.36531159       0.00000000
Si      -1.31631346       1.36676359       1.38844751       0.00000000
Si      -0.01400940       2.68959305      -2.68009173       0.00000000
Si      -0.01058850      -2.68682375       2.68484729       0.00000000
Si       2.71463078       0.00500103       2.67577380       0.00000000
Si      -2.69936054      -2.71521722      -0.00326762       0.00000000
Si      -2.70695982       2.70798446       0.05379906       0.00000000
Si      -2.68034196       0.01865205       2.73631233       0.00000000
