10
Lattice="16.290000149 0.0 0.0 0.0 16.290000149 0.0 0.0 0.0 29.1751946751" Properties=species:S:1:pos:R:3:initial_magmoms:R:1 pbc="T T T"
Si      -1.46644047       1.20730078       1.33884968       0.00000000
Si       1.17656318       1.53052696      -1.31863127       0.00000000
Si      -0.22751266      -1.85292236      -1.43635318       0.00000000
Si       1.43575337      -1.18785052       1.44738141       0.00000000
H       -2.94562136      -1.26291484      -1.43113082       0.00000000
Si       2.08461666      -2.01953648      -2.02405831       0.00000000
Si      -2.61754075      -0.43272756       2.51991991       0.00000000
Si       2.54318016       0.18417474      -2.64245573       0.00000000
Si       3.15944716      -1.94514005       0.07276294       0.00000000
Si      -0.00770191       2.59208111       2.68668533       0.00000000
