10
Lattice="16.290000149 0.0 0.0 0.0 16.290000149 0.0 0.0 0.0 29.1751946751" Properties=species:S:1:pos:R:3:initial_magmoms:R:1 pbc="T T T"
Si       1.39916440       1.41681299       1.25803439       0.00000000
Si      -1.26123697       1.39518150      -1.42797990       0.00000000
Si       1.43185843      -1.28151802      -1.41047479       0.00000000
Si      -1.29334456      -1.58840533       1.27988662       0.00000000
Si      -2.52418439      -2.72398124      -0.34660131       0.00000000
Si       0.28699722      -2.67188582       2.60204809       0.00000000
Si      -2.58782942       2.78845707      -0.06360192       0.00000000
Si       2.87070826       0.12668847       2.53106484       0.00000000
Si      -2.56653839       0.08122194      -2.87471946       0.00000000
Si       2.87139721      -2.62829378      -0.12259417       0.00000000
