10
Lattice="16.290000149 0.0 0.0 0.0 16.290000149 0.0 0.0 0.0 29.1751946751" Properties=species:S:1:pos:R:3:initial_magmoms:R:1 pbc="T T T"
Si      -1.22649040       1.32559876      -1.51115838       0.00000000
Si       1.33763707       1.45525087       1.29330720       0.00000000
Si      -1.62279352      -1.02754063       1.38955617       0.00000000
Si       1.78012235      -1.54991206      -0.63208059       0.00000000
H       -0.85432906      -1.75182662      -1.75938094       0.00000000
H       -0.20155617      -2.17095203      -1.70587363       0.00000000
H        1.34614045       0.61866163      -2.84119716       0.00000000
Si      -0.05818788      -2.30969396       2.51554364       0.00000000
Si       0.03341079       1.07691562      -3.44804121       0.00000000
Si       1.01520910      -3.41974344       0.64923561       0.00000000
