10
Lattice="16.290000149 0.0 0.0 0.0 16.290000149 0.0 0.0 0.0 29.1751946751" Properties=species:S:1:pos:R:3:initial_magmoms:R:1 pbc="T T T"
Si       1.44133921       1.33027399       1.20884502       0.00000000
Si      -1.24592437       1.38974878      -1.36607014       0.00000000
Si       1.51879816      -1.31786264      -1.20093854       0.00000000
Si      -1.16473501      -1.43715105       1.50354366       0.00000000
H        2.08867124       0.48694068       2.28491372       0.00000000
Si       2.49934214      -2.18105183       0.78586304       0.00000000
Si       0.75297268      -2.50108680       2.27937043       0.00000000
Si       0.01488906       2.55911015       2.49958480       0.00000000
Si      -2.41352642      -2.75866266       0.03045890       0.00000000
Si      -2.53215020      -0.04626360      -2.68735636       0.00000000
