10
Lattice="16.290000149 0.0 0.0 0.0 16.290000149 0.0 0.0 0.0 29.1751946751" Properties=species:S:1:pos:R:3:initial_magmoms:R:1 pbc="T T T"
Si      -1.25116975       1.34321314       1.48556882       0.00000000
Si       1.35698959      -1.38661279       1.39795863       0.00000000
Si      -1.44735022      -1.43830439      -1.27769848       0.00000000
Si       1.52415757       1.37352883      -1.27784435       0.00000000
H       -0.64031104       1.15473784      -2.71696918       0.00000000
Si      -0.03699459      -2.61734202      -2.74701963       0.00000000
Si      -2.58660279      -0.06368250       2.83821545       0.00000000
Si      -2.88495577       2.52606263       0.27229209       0.00000000
Si       0.13668939       2.61753098       2.86304938       0.00000000
Si       3.72829233       0.99203332      -0.47646010       0.00000000
