10
Lattice="16.290000149 0.0 0.0 0.0 16.290000149 0.0 0.0 0.0 29.1751946751" Properties=species:S:1:pos:R:3:initial_magmoms:R:1 pbc="T T T"
Si       1.33429762      -1.34803009       1.32656693       0.00000000
Si       1.36777357       1.25981974      -1.42870928       0.00000000
Si      -1.32903595      -1.42645015      -1.31060810       0.00000000
Si      -1.14916177       1.44521623       1.46902940       0.00000000
Si      -2.57670172       2.65435778       0.03816115       0.00000000
Si       2.71166600       2.60190398      -0.10736472       0.00000000
Si      -2.64698656       0.06924879       2.67784524       0.00000000
Si      -2.65468684      -0.06709851      -2.67834122       0.00000000
Si       2.72878679       0.00097740       2.61520610       0.00000000
Si      -0.03692943      -2.64862370       2.70322766       0.00000000
