10
Lattice="16.290000149 0.0 0.0 0.0 16.290000149 0.0 0.0 0.0 29.1751946751" Properties=species:S:1:pos:R:3:initial_magmoms:R:1 pbc="T T T"
Si       0.12906567      -2.30368295      -0.23599815       0.00000000
Si      -1.74636947      -0.32003497       1.49350739       0.00000000
Si      -0.98054398       0.86318919      -1.98680158       0.00000000
Si       1.83861974       1.18214902       1.00377257       0.00000000
H       -0.41067090       2.66799251       1.49905068       0.00000000
Si      -2.49934214       2.18105183      -0.78586304       0.00000000
Si       1.72778258      -2.23402691      -2.02802613       0.00000000
Si      -1.05800293       3.51132582       0.42298197       0.00000000
Si       0.41205555      -3.18927252       2.00672824       0.00000000
Si      -3.66407715       0.74390078       0.71768061       0.00000000
