10
Lattice="16.290000149 0.0 0.0 0.0 16.290000149 0.0 0.0 0.0 29.1751946751" Properties=species:S:1:pos:R:3:initial_magmoms:R:1 pbc="T T T"
Si       1.37024151       1.36910935       1.32537074       0.00000000
Si       1.38001225      -1.34773036      -1.34124205       0.00000000
Si      -1.32541957       1.38401470      -1.35935985       0.00000000
Si      -1.35277048      -1.35285193       1.37097157       0.00000000
Si      -2.69379587       0.03518640      -2.69762603       0.00000000
Si      -2.68457573      -2.70723512      -0.01181595       0.00000000
Si       0.00417024       2.72028341       2.67519030       0.00000000
Si       2.70000236       0.00920385       2.69914314       0.00000000
Si       2.70448211       0.03632670      -2.70246911       0.00000000
Si      -2.69141753       2.73095336      -0.00916101       0.00000000
