10
Lattice="16.28999089631971 0.0 0.0 0.0 16.28999089631971 0.0 0.0 0.0 34.63643526849801" Properties=species:S:1:pos:R:3:initial_magmoms:R:1 pbc="T T T"
Si       1.82828534       1.38673579      -0.67333268       0.00000000
Si      -1.64852912      -0.51842925      -1.69493491       0.00000000
Si       1.33996001      -1.56872700       1.28380019       0.00000000
Si      -1.62748244       1.20603082       1.49997466       0.00000000
Si       0.11434765       2.37848728       2.68964682       0.00000000
Si      -3.21570857       1.23522087      -1.12596187       0.00000000
Si       1.91706584       2.98747916       1.02333405       0.00000000
Si       2.72571773      -0.27673452       2.64000585       0.00000000
Si      -2.74344518      -0.51274404       2.71086165       0.00000000
Si       2.71350023      -2.92548852      -0.13781845       0.00000000
