10
Lattice="16.28999089631971 0.0 0.0 0.0 16.28999089631971 0.0 0.0 0.0 34.63643526849801" Properties=species:S:1:pos:R:3:initial_magmoms:R:1 pbc="T T T"
Si       1.36011726       1.32595713       1.37721125       0.00000000
Si       1.28611179      -1.44478779      -1.33122096       0.00000000
Si      -1.36603053      -1.37959847       1.36761695       0.00000000
Si      -0.86912037       1.82824299      -1.40248547       0.00000000
Si      -0.35745147      -2.42432993      -2.90532456       0.00000000
Si       2.70184311       2.67983532       0.01854089       0.00000000
Si      -2.70353727       2.69205282      -0.01522619       0.00000000
Si      -0.00260640       2.68895772       2.72495033       0.00000000
Si       2.71005327      -0.02194263       2.73111562       0.00000000
Si      -2.71764441      -0.02282229       2.72872570       0.00000000
