10
Lattice="16.28999089631971 0.0 0.0 0.0 16.28999089631971 0.0 0.0 0.0 34.63643526849801" Properties=species:S:1:pos:R:3:initial_magmoms:R:1 pbc="T T T"
Si       1.36317978       1.33726402      -1.38130181       0.00000000
Si      -1.35210258      -1.37844819      -1.37773426       0.00000000
Si       1.55501082      -1.21018247       1.33457723       0.00000000
Si      -1.45329606       1.35831070       1.46103493       0.00000000
Si       2.71777473       2.69352055       0.00471056       0.00000000
Si      -2.71564074       2.71070650      -0.00387928       0.00000000
Si       0.00778662       2.69762563      -2.74067875       0.00000000
Si      -2.71314837      -2.73051907       0.00259773       0.00000000
Si       2.71977840      -2.72527369      -0.04211793       0.00000000
Si      -2.70793557      -0.01889151      -2.74060947       0.00000000
