10
Lattice="16.28999089631971 0.0 0.0 0.0 16.28999089631971 0.0 0.0 0.0 34.63643526849801" Properties=species:S:1:pos:R:3:initial_magmoms:R:1 pbc="T T T"
Si      -1.34245860      -1.35060669      -1.37811526       0.00000000
Si       1.36955243       1.36612012      -1.37672980       0.00000000
Si       1.26990650      -1.38455130       1.46578012       0.00000000
Si      -1.38934545       1.29139790       1.50013949       0.00000000
Si       2.49551723       0.10987931       2.85487514       0.00000000
Si       0.08209997       2.64576478       2.74774458       0.00000000
Si      -2.68570365       2.71286330      -0.00917866       0.00000000
Si      -2.70248235      -2.71971228       0.00031173       0.00000000
Si       2.72460350      -2.70620787       0.00384465       0.00000000
Si      -2.70279186       0.00471433      -2.74022847       0.00000000
