10
Lattice="16.28999089631971 0.0 0.0 0.0 16.28999089631971 0.0 0.0 0.0 34.63643526849801" Properties=species:S:1:pos:R:3:initial_magmoms:R:1 pbc="T T T"
Si      -1.26234468       1.35239580      -1.46491421       0.00000000
Si       1.10923497       1.45327977       1.53460276       0.00000000
Si      -1.48893858      -1.27274259       1.39259329       0.00000000
Si       1.45329606      -1.35831070      -1.46103493       0.00000000
Si       1.52177922      -0.17609490       3.19143757       0.00000000
Si       2.70866862       2.60478729       0.01859978       0.00000000
Si      -0.08149887      -2.10109234       3.13851306       0.00000000
Si      -2.58072696       2.82826980       0.04492348       0.00000000
Si      -2.61490338      -0.01650177      -2.83901164       0.00000000
Si      -2.71454931      -2.76717320       0.00349828       0.00000000
