10
Lattice="16.28999089631971 0.0 0.0 0.0 16.28999089631971 0.0 0.0 0.0 34.63643526849801" Properties=species:S:1:pos:R:3:initial_magmoms:R:1 pbc="T T T"
Si       1.08488142      -1.14856003       1.72337144       0.00000000
Si       0.31517892       2.30908111      -0.27941228       0.00000000
Si      -0.08780310      -1.41356575      -1.92111096       0.00000000
Si      -2.44170810       0.11871957       0.21069355       0.00000000
Si      -2.11910094      -2.06014843      -0.83730165       0.00000000
Si      -2.01318336       2.53569130      -0.53960133       0.00000000
Si       3.30102189      -0.30263662       1.55559245       0.00000000
Si       0.72340632      -3.47674312       1.36006966       0.00000000
Si      -0.78912018      -0.16259149      -3.76602171       0.00000000
Si       0.65086695       3.46821235       1.73577129       0.00000000
