10
Lattice="16.28999089631971 0.0 0.0 0.0 16.28999089631971 0.0 0.0 0.0 34.63643526849801" Properties=species:S:1:pos:R:3:initial_magmoms:R:1 pbc="T T T"
Si      -1.04521527      -1.56443037       1.45197546       0.00000000
Si       1.64356326       0.97954213       1.57410360       0.00000000
Si      -1.85386716       1.69978331      -0.16469634       0.00000000
Si      -1.94264766       0.09903994      -1.86136307       0.00000000
Si       1.89467361      -1.25065239      -2.79668589       0.00000000
Si       2.11884030       2.55202724      -1.43187103       0.00000000
Si      -2.43097299      -2.85642285       0.09576980       0.00000000
Si      -2.36947824      -0.31112387       2.91563237       0.00000000
Si      -0.55073232       3.61410266      -0.93695073       0.00000000
Si       0.35745147       2.42432993       2.90532456       0.00000000
