10
Lattice="16.28999089631971 0.0 0.0 0.0 16.28999089631971 0.0 0.0 0.0 34.63643526849801" Properties=species:S:1:pos:R:3:initial_magmoms:R:1 pbc="T T T"
Si      -0.43556202       2.24275833       0.62892874       0.00000000
Si      -0.13931208      -0.44131239      -2.34256734       0.00000000
Si       2.20962447      -0.84675420       0.34702264       0.00000000
Si      -1.72556712      -1.42048800       0.88052795       0.00000000
Si       0.03008763      -2.78449857      -2.15701985       0.00000000
Si       2.15813178      -2.65574241      -1.25435920       0.00000000
Si      -1.71776421      -3.18599820      -0.69380282       0.00000000
Si       1.43415531       3.62271681       0.09431507       0.00000000
Si       2.60218089      -1.29777543       2.61290486       0.00000000
Si       3.82352364       0.87630426      -0.02265224       0.00000000
