10
Lattice="16.28999089631971 0.0 0.0 0.0 16.28999089631971 0.0 0.0 0.0 34.63643526849801" Properties=species:S:1:pos:R:3:initial_magmoms:R:1 pbc="T T T"
Si      -1.35697329      -1.34115570      -1.36822655       0.00000000
Si       1.35785295      -1.35462753       1.35861493       0.00000000
Si      -1.35575154       1.35985662       1.35961939       0.00000000
Si       1.34972424       1.38228795      -1.38501484       0.00000000
Si      -2.71298710      -2.71389771      -0.00034636       0.00000000
Si      -0.00011403      -2.71218726       2.71660641       0.00000000
Si      -2.71400848       0.00254124       2.71601759       0.00000000
Si       2.71655298       0.00276930       2.71580977       0.00000000
Si       2.71974582      -2.71280628      -0.00034636       0.00000000
Si       0.00057015       2.71811682       2.71570586       0.00000000
