10
Lattice="16.28999089631971 0.0 0.0 0.0 16.28999089631971 0.0 0.0 0.0 34.63643526849801" Properties=species:S:1:pos:R:3:initial_magmoms:R:1 pbc="T T T"
Si       1.87942617       1.01092482       1.05481859       0.00000000
Si      -1.36888128       1.34833959      -1.40648251       0.00000000
Si       1.33736013      -1.36969578      -1.42761075       0.00000000
Si      -1.45806903      -1.24755336       1.53363294       0.00000000
Si       0.68517369       1.17123471       3.05995758       0.00000000
Si       2.63906145      -2.59675632       0.09140560       0.00000000
Si      -2.68438023      -2.71191033      -0.01607131       0.00000000
Si      -0.00783549       2.70041047      -2.78681450       0.00000000
Si       2.70472644      -0.01031157      -2.79062451       0.00000000
Si      -2.82357828       2.66999616       0.05545296       0.00000000
