10
Lattice="16.28999089631971 0.0 0.0 0.0 16.28999089631971 0.0 0.0 0.0 34.63643526849801" Properties=species:S:1:pos:R:3:initial_magmoms:R:1 pbc="T T T"
Si       1.28710711      -1.40191530       1.41401594       0.00000000
Si      -1.41551271       1.32881440       1.39853345       0.00000000
Si      -1.74183010      -1.17245646      -1.18967216       0.00000000
Si       1.80271819       0.60899188      -1.66631277       0.00000000
Si      -0.11434765      -2.37848728      -2.68964682       0.00000000
Si       2.61137008      -2.65522180      -0.04964097       0.00000000
Si      -3.52985308       0.59776807      -1.15311027       0.00000000
Si       2.64800629      -0.04605998       2.77132508       0.00000000
Si      -0.06139864       2.66162962       2.77312618       0.00000000
Si      -2.86357579       2.65082935      -0.00757153       0.00000000
