10
Lattice="16.28999089631971 0.0 0.0 0.0 16.28999089631971 0.0 0.0 0.0 34.63643526849801" Properties=species:S:1:pos:R:3:initial_magmoms:R:1 pbc="T T T"
Si      -0.13274721       1.90640471      -1.41379080       0.00000000
Si      -2.14198839      -1.06000659       0.08894642       0.00000000
Si      -0.23330538       1.45064079       1.98224430       0.00000000
Si       1.95525612      -1.50166107      -0.47365352       0.00000000
Si       1.58214996       3.15552843      -0.37885354       0.00000000
Si      -1.75005099      -3.14025588       1.01526376       0.00000000
Si      -2.59346574       1.94796213       2.05106693       0.00000000
Si       0.46801170       0.19966653       3.82715505       0.00000000
Si       2.85465960      -2.14060374       1.64381150       0.00000000
Si       3.42682956      -0.26609715      -1.97490137       0.00000000
