10
Lattice="16.28999089631971 0.0 0.0 0.0 16.28999089631971 0.0 0.0 0.0 34.63643526849801" Properties=species:S:1:pos:R:3:initial_magmoms:R:1 pbc="T T T"
Si      -0.62854965       1.05432138       2.00368426       0.00000000
Si       2.32836228      -0.22661019       0.26018905       0.00000000
Si      -0.43911324       1.49910354      -1.79247116       0.00000000
Si      -0.42852474      -2.41697174       0.75029488       0.00000000
Si      -2.09976145      -1.95248030      -1.00276000       0.00000000
Si       2.01318336      -2.53569130       0.53960133       0.00000000
Si       2.66405031       0.93252105       2.27537261       0.00000000
Si      -2.42762377      -0.12321756       2.76759127       0.00000000
Si      -3.56434064      -0.14854851      -1.04082546       0.00000000
Si       0.95617413       3.37325175      -1.27915891       0.00000000
