10
Lattice="16.28999089631971 0.0 0.0 0.0 16.28999089631971 0.0 0.0 0.0 34.63643526849801" Properties=species:S:1:pos:R:3:initial_magmoms:R:1 pbc="T T T"
Si       1.73666061      -1.40484960       0.74191286       0.00000000
Si       0.83746890       1.80286317       1.27067297       0.00000000
Si       0.51969987       0.26928999      -2.30114214       0.00000000
Si      -2.25686547      -0.35443782       0.78579725       0.00000000
Si       0.28590579       0.81614529       3.31997345       0.00000000
Si       3.58816572      -0.30146274      -0.18360785       0.00000000
Si      -2.02383702       0.68494563       2.91188674       0.00000000
Si       1.50498423      -1.22078889       3.07485126       0.00000000
Si      -3.46472010       0.46333647      -1.07539264       0.00000000
Si       1.18741068      -3.50427941      -0.08621014       0.00000000
