10
Lattice="16.28999089631971 0.0 0.0 0.0 16.28999089631971 0.0 0.0 0.0 34.63643526849801" Properties=species:S:1:pos:R:3:initial_magmoms:R:1 pbc="T T T"
Si       1.61696169      -1.63319372      -0.37185698       0.00000000
Si      -2.29576599      -0.01498354      -0.63138793       0.00000000
Si      -0.15179022      -0.53309188       2.35600628       0.00000000
Si       1.35397593       1.45220463      -1.47852634       0.00000000
Si      -1.87844877       0.44075527      -2.99851251       0.00000000
Si      -2.06425251       1.14934095       2.70854239       0.00000000
Si       0.96834276      -2.54064446      -2.50116766       0.00000000
Si       0.31397346       1.17428094      -3.56180517       0.00000000
Si      -3.32716734       1.69981263       0.82427835       0.00000000
Si       3.85734168      -0.90468958      -0.05784288       0.00000000
