10
Lattice="16.28999089631971 0.0 0.0 0.0 16.28999089631971 0.0 0.0 0.0 34.63643526849801" Properties=species:S:1:pos:R:3:initial_magmoms:R:1 pbc="T T T"
Si      -2.26056330       0.37765107      -0.58005671       0.00000000
Si       1.71748728       0.51702831      -1.59649810       0.00000000
Si       0.36937575       1.79690103       1.57301459       0.00000000
Si       0.39069936      -2.39274036       0.27390508       0.00000000
Si       2.70044217      -2.26154070       0.68199179       0.00000000
Si      -3.38408460      -1.03293261       0.89926627       0.00000000
Si       3.25200528      -1.27482282      -1.36730868       0.00000000
Si      -2.33220672      -0.31426668       2.98067474       0.00000000
Si       2.55546117       1.45981206       2.45932682       0.00000000
Si       0.15767091      -3.43212381      -1.85218441       0.00000000
