10
Lattice="16.28999089631971 0.0 0.0 0.0 16.28999089631971 0.0 0.0 0.0 34.63643526849801" Properties=species:S:1:pos:R:3:initial_magmoms:R:1 pbc="T T T"
Si       1.43747847       1.76981076       0.50894806       0.00000000
Si       1.53451800      -1.79185113       0.22918942       0.00000000
Si      -1.71748728      -0.51702831       1.59649810       0.00000000
Si      -0.61230852       0.29121633      -2.30820797       0.00000000
Si       2.90530521       1.70297289      -1.34382517       0.00000000
Si      -1.34811153       1.27987272       3.16951269       0.00000000
Si      -1.32678792      -2.90976867       1.87040319       0.00000000
Si       0.98295489      -2.77856901       2.27848989       0.00000000
Si      -2.62128906      -0.87403995      -2.58287506       0.00000000
Si       0.69704910      -3.59471430      -1.04148355       0.00000000
