10
Lattice="16.28999089631971 0.0 0.0 0.0 16.28999089631971 0.0 0.0 0.0 34.63643526849801" Properties=species:S:1:pos:R:3:initial_magmoms:R:1 pbc="T T T"
Si      -0.69571332      -2.12534001       0.55428718       0.00000000
Si      -1.76303412       0.96370011      -1.34351344       0.00000000
Si       0.99033426       0.60326757       2.23425914       0.00000000
Si       0.95133600      -1.91611125      -1.34247434       0.00000000
Si      -0.35662068       2.31790410      -2.68501796       0.00000000
Si       2.39156748      -0.56922147      -2.73960502       0.00000000
Si       0.14550228      -2.59747308       2.64002521       0.00000000
Si      -0.96984144       0.73961487       3.58314123       0.00000000
Si       2.15448282      -1.43221680       2.91469229       0.00000000
Si      -3.40669512       1.98441522       0.15063394       0.00000000
