10
Lattice="16.28999089631971 0.0 0.0 0.0 16.28999089631971 0.0 0.0 0.0 34.63643526849801" Properties=species:S:1:pos:R:3:initial_magmoms:R:1 pbc="T T T"
Si       1.96646364       1.37072205      -0.04294920       0.00000000
Si      -1.73657916       1.68759513      -0.09514634       0.00000000
Si      -0.77946021      -0.43510590       2.28001390       0.00000000
Si      -0.62752338      -1.04140341      -2.19709423       0.00000000
Si       0.44043273      -2.51768466       0.38238646       0.00000000
Si      -2.87153604      -1.29184587       1.68447470       0.00000000
Si       0.60893649      -2.38505148       2.65613639       0.00000000
Si       1.23553134       3.10389660      -1.54114905       0.00000000
Si      -1.84886613      -3.21548310       0.43846288       0.00000000
Si      -1.32781419       0.77325372      -3.53302228       0.00000000
