10
Lattice="16.28999089631971 0.0 0.0 0.0 16.28999089631971 0.0 0.0 0.0 34.63643526849801" Properties=species:S:1:pos:R:3:initial_magmoms:R:1 pbc="T T T"
Si       0.73093230      -1.73317455       1.49819984       0.00000000
Si       1.67562198       1.60313148      -0.67063103       0.00000000
Si      -0.68242068      -0.86754024      -2.16003322       0.00000000
Si      -1.95846525       0.76250232       1.41278635       0.00000000
Si      -2.97211050      -1.41630147       1.44600271       0.00000000
Si      -1.23553134      -3.10389660       1.54114905       0.00000000
Si       0.34498962       3.58818201      -0.99385843       0.00000000
Si      -3.06623412       2.18865924      -0.18977313       0.00000000
Si      -1.23683454       1.07585676      -3.48924180       0.00000000
Si       1.26540720      -2.04823944      -3.03955671       0.00000000
