10
Lattice="16.28999089631971 0.0 0.0 0.0 16.28999089631971 0.0 0.0 0.0 34.63643526849801" Properties=species:S:1:pos:R:3:initial_magmoms:R:1 pbc="T T T"
Si      -1.28031255       0.01741401      -1.98498058       0.00000000
Si      -2.08336068      -0.85861332       0.82770736       0.00000000
Si       1.01364525       2.17880379      -0.03321636       0.00000000
Si       1.73657916      -1.68759513       0.09514634       0.00000000
Si       0.95711895      -2.12270103       2.37516024       0.00000000
Si       0.40876497      -0.91434141      -3.43787594       0.00000000
Si       2.97211050       1.41630147      -1.44600271       0.00000000
Si       1.10905578      -2.72899854      -2.10194789       0.00000000
Si      -1.13495688      -2.97944100       1.77962104       0.00000000
Si       3.70304280      -0.31687308       0.05219714       0.00000000
