10
Lattice="16.28999089631971 0.0 0.0 0.0 16.28999089631971 0.0 0.0 0.0 34.63643526849801" Properties=species:S:1:pos:R:3:initial_magmoms:R:1 pbc="T T T"
Si      -1.35411407      -1.33281522      -1.37459273       0.00000000
Si       1.35779105      -1.35091341       1.35930766       0.00000000
Si      -1.35715906       1.36357074       1.35913448       0.00000000
Si       1.37189819       1.36396170      -1.38464423       0.00000000
Si       2.70940493      -2.70768959      -0.00180110       0.00000000
Si      -2.71416228      -2.70937398      -0.00193964       0.00000000
Si       0.00029648      -2.70990503       2.71629468       0.00000000
Si       2.71486208       0.00470781       2.71632932       0.00000000
Si      -2.71505823       0.00465894       2.71657177       0.00000000
Si      -2.71180023       2.72184723       0.00221673       0.00000000
