10
Lattice="16.28999089631971 0.0 0.0 0.0 16.28999089631971 0.0 0.0 0.0 34.63643526849801" Properties=species:S:1:pos:R:3:initial_magmoms:R:1 pbc="T T T"
Si      -1.35684297       1.35695793       1.35702166       0.00000000
Si       1.35954711       1.35485564      -1.35681384       0.00000000
Si       1.35754344      -1.35718506       1.35719484       0.00000000
Si      -1.35819504      -1.35795069      -1.35691775       0.00000000
Si       2.71171485       0.00218286      -2.71196512       0.00000000
Si       0.00061902       2.71261636       2.71442431       0.00000000
Si      -2.71181259      -0.00179190      -2.71553268       0.00000000
Si      -2.71433754      -0.00161271       2.71428577       0.00000000
Si       2.71482624       0.00210141       2.71390477       0.00000000
Si      -2.71394658       2.71499633       0.00041564       0.00000000
