10
Lattice="16.28999089631971 0.0 0.0 0.0 16.28999089631971 0.0 0.0 0.0 34.63643526849801" Properties=species:S:1:pos:R:3:initial_magmoms:R:1 pbc="T T T"
Si       1.35681039       1.35648459      -1.35840711       0.00000000
Si      -1.35809730      -1.35900954      -1.35799148       0.00000000
Si       1.35664749      -1.36032903       1.36006966       0.00000000
Si      -1.36115982       1.35886293       1.35844175       0.00000000
Si      -0.00184077       2.72275947       2.69786809       0.00000000
Si      -2.71507059       2.71205694      -0.00131619       0.00000000
Si      -0.00073305       2.71366965      -2.71560195       0.00000000
Si       2.71451673      -0.00169416      -2.71532486       0.00000000
Si       2.71409319       2.71577106      -0.00169719       0.00000000
Si      -2.71490769      -0.00159642      -2.71584441       0.00000000
