10
Lattice="16.28999089631971 0.0 0.0 0.0 16.28999089631971 0.0 0.0 0.0 34.63643526849801" Properties=species:S:1:pos:R:3:initial_magmoms:R:1 pbc="T T T"
Si      -1.35971001      -1.34703639       1.34351344       0.00000000
Si       1.35622395      -1.35402480      -1.35605184       0.00000000
Si      -1.35798327       1.35649015      -1.35553229       0.00000000
Si       1.35558864       1.36406826       1.36024285       0.00000000
Si      -2.52447759       0.16805483       2.72020860       0.00000000
Si       2.65538403      -0.00798210       2.76537454       0.00000000
Si       2.71308321      -2.71254564       0.00671947       0.00000000
Si      -0.00105885      -2.71331127      -2.71276176       0.00000000
Si       2.71422351       0.00133251      -2.71307349       0.00000000
Si      -2.71544526       0.00083172      -2.71293494       0.00000000
