10
Lattice="16.28999089631971 0.0 0.0 0.0 16.28999089631971 0.0 0.0 0.0 34.63643526849801" Properties=species:S:1:pos:R:3:initial_magmoms:R:1 pbc="T T T"
Si       0.64861893       0.90745074       2.12931068       0.00000000
Si       1.33063236      -1.98505053       0.32322739       0.00000000
Si      -2.08264392      -0.69535494      -1.00009299       0.00000000
Si       0.28794204       1.67243144      -1.73906175       0.00000000
Si       1.94557986      -1.79463672      -1.99312014       0.00000000
Si      -0.96834276       2.54064446       2.50116766       0.00000000
Si       2.52299520       2.14168932      -1.70594930       0.00000000
Si      -0.34498962      -3.58818201       0.99385843       0.00000000
Si      -3.41122374      -1.39952277       0.80408529       0.00000000
Si       0.16720056      -1.42780221      -3.56745092       0.00000000
