10
Lattice="16.28999089631971 0.0 0.0 0.0 16.28999089631971 0.0 0.0 0.0 34.63643526849801" Properties=species:S:1:pos:R:3:initial_magmoms:R:1 pbc="T T T"
Si      -1.32857982      -0.70416783       1.80417828       0.00000000
Si       0.50081976      -1.81697031      -1.49529038       0.00000000
Si       2.08264392       0.69535494       1.00009299       0.00000000
Si      -1.26868149       1.82021202      -0.97654020       0.00000000
Si       2.37058596       2.36778638      -0.73896876       0.00000000
Si       2.24984448      -0.73244727      -2.56735793       0.00000000
Si       1.60624287       1.58298075      -2.81968450       0.00000000
Si      -3.48482196       0.97428861      -0.80876122       0.00000000
Si      -0.76414761       3.67675467       0.50274814       0.00000000
Si      -3.10519980      -2.05113906       0.98422949       0.00000000
