10
Lattice="16.28999089631971 0.0 0.0 0.0 16.28999089631971 0.0 0.0 0.0 34.63643526849801" Properties=species:S:1:pos:R:3:initial_magmoms:R:1 pbc="T T T"
Si      -1.11596274      -1.71877486       1.21088699       0.00000000
Si       1.74183010       1.17245646       1.18967216       0.00000000
Si      -1.78802298       1.77022453       0.03656190       0.00000000
Si       1.62748244      -1.20603082      -1.49997466       0.00000000
Si      -1.58822613       0.02919005      -2.62593652       0.00000000
Si      -2.40958422      -0.24097864       2.58658116       0.00000000
Si       0.32631739       2.50127086       2.58820561       0.00000000
Si      -0.02104668      -1.72446007      -3.19490956       0.00000000
Si      -2.52214812      -2.91446086      -0.37848089       0.00000000
Si       0.31505347      -2.94832777       2.61705777       0.00000000
