10
Lattice="16.28999089631971 0.0 0.0 0.0 16.28999089631971 0.0 0.0 0.0 34.63643526849801" Properties=species:S:1:pos:R:3:initial_magmoms:R:1 pbc="T T T"
Si       1.35628559      -1.35807511       1.36083167       0.00000000
Si      -1.35896067       1.35831396       1.36045066       0.00000000
Si       1.36004821       1.37655876      -1.37265309       0.00000000
Si      -1.37585340      -1.36569074      -1.37427754       0.00000000
Si       2.71416228       2.70937398       0.00193964       0.00000000
Si       2.71465098      -2.71197779       0.00277092       0.00000000
Si      -2.71401174       2.71277859       0.00935184       0.00000000
Si      -2.71951776      -2.71289003       0.00644238       0.00000000
Si      -0.00089595       2.71403292       2.71851141       0.00000000
Si       2.71445876      -0.00053105       2.71823432       0.00000000
