10
Lattice="16.28999089631971 0.0 0.0 0.0 16.28999089631971 0.0 0.0 0.0 34.63643526849801" Properties=species:S:1:pos:R:3:initial_magmoms:R:1 pbc="T T T"
Si       1.05544539       1.62452025      -1.31302944       0.00000000
Si      -1.28428731       1.36528119       1.43086658       0.00000000
Si       1.44806308      -1.32201495       1.40610498       0.00000000
Si      -0.66627729      -2.05306128      -1.14553874       0.00000000
Si      -0.68903442       3.35793915      -1.21262089       0.00000000
Si      -2.57382000       2.72652246       0.07183601       0.00000000
Si      -2.68609068      -2.64452512      -0.01047406       0.00000000
Si      -2.62599687       0.01420488       2.78810991       0.00000000
Si       2.74448611       2.67574653      -0.02416932       0.00000000
Si       0.08801487      -2.69857371       2.77875806       0.00000000
