10
Lattice="16.28999089631971 0.0 0.0 0.0 16.28999089631971 0.0 0.0 0.0 34.63643526849801" Properties=species:S:1:pos:R:3:initial_magmoms:R:1 pbc="T T T"
Si      -1.88478558      -0.63141669       1.28445690       0.00000000
Si       0.72190764       1.95504435       1.27344251       0.00000000
Si       1.74447981      -1.73341890      -0.10040855       0.00000000
Si      -0.20614995      -1.26011295      -2.46542565       0.00000000
Si      -0.59525289      -1.99265796       2.64348747       0.00000000
Si       2.14120835       0.71338797       2.64217821       0.00000000
Si       0.68903442      -3.35793915       1.21262089       0.00000000
Si      -0.41741496       0.82837908      -3.55941807       0.00000000
Si       3.43352053      -0.68219262       1.18845157       0.00000000
Si       2.37927083       3.11657022       0.11001577       0.00000000
