10
Lattice="16.28999089631971 0.0 0.0 0.0 16.28999089631971 0.0 0.0 0.0 34.63643526849801" Properties=species:S:1:pos:R:3:initial_magmoms:R:1 pbc="T T T"
Si       1.35556650      -1.35355239      -1.36190540       0.00000000
Si      -1.34296389      -1.36058967       1.36945614       0.00000000
Si      -1.35826020       1.36107837      -1.36062385       0.00000000
Si       1.35396031       1.36774098       1.37780353       0.00000000
Si       2.71229219      -2.70733284       0.00190501       0.00000000
Si      -2.71507059      -2.71303434      -0.00360219       0.00000000
Si      -0.00096046      -2.71150308      -2.71802650       0.00000000
Si       2.71116818       2.71928970      -0.00152400       0.00000000
Si       2.71436102       0.00368154      -2.71785332       0.00000000
Si      -2.71583622       0.00371412      -2.71819969       0.00000000
