10
Lattice="16.28999089631971 0.0 0.0 0.0 16.28999089631971 0.0 0.0 0.0 34.63643526849801" Properties=species:S:1:pos:R:3:initial_magmoms:R:1 pbc="T T T"
Si      -1.35879451      -1.35723393       1.35594793       0.00000000
Si       1.35808101       1.35733167       1.35674456       0.00000000
Si       1.35728280      -1.35803214      -1.35799148       0.00000000
Si      -1.35768679       1.35883035      -1.35705629       0.00000000
Si      -0.00001629       2.71459818      -2.71296958       0.00000000
Si       0.00021177      -2.71365336      -2.71501313       0.00000000
Si       2.71451673       2.71507059      -0.00013855       0.00000000
Si       2.71500543      -2.71464705      -0.00010391       0.00000000
Si      -2.71473834       0.00083079      -2.71518631       0.00000000
Si      -2.71511806       2.71521720      -0.00041564       0.00000000
