10
Lattice="16.28999089631971 0.0 0.0 0.0 16.28999089631971 0.0 0.0 0.0 34.63643526849801" Properties=species:S:1:pos:R:3:initial_magmoms:R:1 pbc="T T T"
Si       1.37007045      -1.34039007      -1.35563620       0.00000000
Si      -1.37523438       1.38885282      -1.35456247       0.00000000
Si      -0.81816525      -1.77701094       1.42501302       0.00000000
Si       1.50822594       0.83546523       1.75793862       0.00000000
Si      -2.59818984      -2.63140515       0.07786275       0.00000000
Si       2.64171672       2.74190022       0.07893648       0.00000000
Si      -0.00203625      -2.69283474      -2.72869453       0.00000000
Si       2.66642865      -2.76185547       0.15368195       0.00000000
Si       2.71303434       0.02019960      -2.72509234       0.00000000
Si      -2.71572219       0.02339244      -2.72654707       0.00000000
