10
Lattice="16.28999089631971 0.0 0.0 0.0 16.28999089631971 0.0 0.0 0.0 34.63643526849801" Properties=species:S:1:pos:R:3:initial_magmoms:R:1 pbc="T T T"
Si      -1.35728280      -1.35669636       1.35653675       0.00000000
Si      -1.35997065       1.35814617      -1.35400828       0.00000000
Si       1.35801585       1.35713619       1.35729875       0.00000000
Si       1.36085031      -1.35578412      -1.35747193       0.00000000
Si      -2.69420310       0.01205460      -2.71695970       0.00000000
Si       2.71495119       2.71381626      -0.00006927       0.00000000
Si      -2.71482624       0.00003258       2.71400868       0.00000000
Si       0.00030951       2.71490769       2.71414722       0.00000000
Si       0.00003258      -2.71485882       2.71428577       0.00000000
Si       2.71511175       0.00032580       2.71421649       0.00000000
