10
Lattice="16.28999089631971 0.0 0.0 0.0 16.28999089631971 0.0 0.0 0.0 34.63643526849801" Properties=species:S:1:pos:R:3:initial_magmoms:R:1 pbc="T T T"
Si       1.35709590      -1.35681039       1.35691775       0.00000000
Si       1.35693534       1.35668007      -1.35736802       0.00000000
Si      -1.35770634       1.35777150       1.35684847       0.00000000
Si      -1.35801585      -1.35713619      -1.35729875       0.00000000
Si       0.00283446      -2.71292031      -2.71477068       0.00000000
Si       2.71452717      -2.71319724       0.00027709       0.00000000
Si      -0.00084708       2.71407690       2.71504777       0.00000000
Si      -2.71529865      -2.71383255      -0.00076200       0.00000000
Si      -0.00040725      -2.71463076       2.71456286       0.00000000
Si      -2.71798650       0.00100998      -2.71130703       0.00000000
