10
Lattice="16.28999089631971 0.0 0.0 0.0 16.28999089631971 0.0 0.0 0.0 34.63643526849801" Properties=species:S:1:pos:R:3:initial_magmoms:R:1 pbc="T T T"
Si      -1.07769753      -0.03515382      -2.09858815       0.00000000
Si       0.26490798       2.29423473       0.49620185       0.00000000
Si      -1.67720211      -0.86218083       1.44828871       0.00000000
Si       2.25005625      -0.64423692       0.51113016       0.00000000
Si      -2.09339532       2.07244638      -1.79240189       0.00000000
Si       0.37976877       2.18243646       2.85937788       0.00000000
Si      -1.30434030       0.52479864       3.37068122       0.00000000
Si       2.46710421       2.71119357      -0.16348407       0.00000000
Si       3.34430183      -0.61131483      -1.57872960       0.00000000
Si       3.30579227       1.27343817       1.47312305       0.00000000
