10
Lattice="16.28999089631971 0.0 0.0 0.0 16.28999089631971 0.0 0.0 0.0 34.63643526849801" Properties=species:S:1:pos:R:3:initial_magmoms:R:1 pbc="T T T"
Si       2.20219623       0.41695884      -0.65968591       0.00000000
Si      -0.26490798      -2.29423473      -0.49620185       0.00000000
Si       0.11486079      -0.11179827       2.36317603       0.00000000
Si      -1.56770073       1.66006503      -0.77589122       0.00000000
Si      -2.35830330      -0.22178835      -2.28860374       0.00000000
Si       3.04088429      -1.02079656       0.97692120       0.00000000
Si       1.98514827      -2.93847165       0.01492831       0.00000000
Si      -0.54408600       2.07234864       2.92705751       0.00000000
Si      -2.32246530       2.43918315       1.35272674       0.00000000
Si      -1.56924828      -1.76943609       2.87447937       0.00000000
