10
Lattice="16.28999089631971 0.0 0.0 0.0 16.28999089631971 0.0 0.0 0.0 34.63643526849801" Properties=species:S:1:pos:R:3:initial_magmoms:R:1 pbc="T T T"
Si       0.60018876      -1.78590528       1.43017385       0.00000000
Si      -0.37286181      -1.38697947      -1.92239250       0.00000000
Si       1.68410907       1.65763782      -0.51130334       0.00000000
Si      -1.94782788       1.18069920       0.87952349       0.00000000
Si       1.30434030      -0.52479864      -3.37068122       0.00000000
Si       1.56924828       1.76943609      -2.87447937       0.00000000
Si      -1.21591818      -3.25575198       1.67879432       0.00000000
Si      -1.26540720       2.04823944       3.03955671       0.00000000
Si       1.32861240      -1.03720059       3.52502126       0.00000000
Si      -2.55894723      -1.04989050      -2.80870474       0.00000000
