10
Lattice="16.28999089631971 0.0 0.0 0.0 16.28999089631971 0.0 0.0 0.0 34.63643526849801" Properties=species:S:1:pos:R:3:initial_magmoms:R:1 pbc="T T T"
Si      -0.19086162       2.23018245       0.36565705       0.00000000
Si       1.08858739      -0.22053402      -2.14614400       0.00000000
Si      -1.84990284      -1.18583055       1.02994961       0.00000000
Si       2.23807984      -1.35602847      -0.37033297       0.00000000
Si      -1.54106073       2.02241979      -1.78949243       0.00000000
Si      -1.14233040      -1.16512596       3.29067101       0.00000000
Si       1.69829440      -2.87095937       1.59383110       0.00000000
Si       1.00358292       2.79694413       2.26910342       0.00000000
Si      -0.38285802      -1.57490091      -3.39374910       0.00000000
Si      -1.87562475      -3.33583525       0.05067313       0.00000000
