10
Lattice="16.28999089631971 0.0 0.0 0.0 16.28999089631971 0.0 0.0 0.0 34.63643526849801" Properties=species:S:1:pos:R:3:initial_magmoms:R:1 pbc="T T T"
Si       0.47443226      -0.65974500       2.18799804       0.00000000
Si      -0.01839141      -1.96784829      -1.31649700       0.00000000
Si       2.36353958      -0.11183085      -0.36337105       0.00000000
Si      -1.61200953       1.77287328      -0.50174368       0.00000000
Si       1.98642608      -2.87945298      -0.34452881       0.00000000
Si      -0.11510514       3.60799065      -1.08640704       0.00000000
Si       1.55062785       1.09260288       3.31016583       0.00000000
Si      -2.61620658       2.41798986       1.73002164       0.00000000
Si       3.05957870       0.52414704      -2.47546741       0.00000000
Si      -1.18293093      -1.82127087       3.35142477       0.00000000
