10
Lattice="16.28999089631971 0.0 0.0 0.0 16.28999089631971 0.0 0.0 0.0 34.63643526849801" Properties=species:S:1:pos:R:3:initial_magmoms:R:1 pbc="T T T"
Si      -1.35718506      -1.34675946      -1.37797671       0.00000000
Si       1.36002375       1.36910560      -1.37842698       0.00000000
Si      -1.41488424       1.35780408       1.38067835       0.00000000
Si       1.33512840      -1.31779584       1.53761613       0.00000000
Si       2.71841886      -2.69232975       0.00083127       0.00000000
Si      -2.71174743      -2.70404226      -0.00238992       0.00000000
Si       2.70248235       2.71971228      -0.00031173       0.00000000
Si      -2.71467963       2.72985444      -0.02445334       0.00000000
Si       0.00104256      -2.70703962      -2.73908547       0.00000000
Si      -2.71404432       0.01176138      -2.74074802       0.00000000
