10
Lattice="16.28999089631971 0.0 0.0 0.0 16.28999089631971 0.0 0.0 0.0 34.63643526849801" Properties=species:S:1:pos:R:3:initial_magmoms:R:1 pbc="T T T"
Si       1.48200297      -1.44956565      -1.04740639       0.00000000
Si      -1.81148058      -0.40451328      -1.44866971       0.00000000
Si      -0.58495761      -0.15185538       2.30443260       0.00000000
Si       1.43006067       1.84617569      -0.59211019       0.00000000
Si       1.33913967      -0.43210854      -3.20792452       0.00000000
Si       3.42390455      -0.79718373       0.11294948       0.00000000
Si       3.10129739       1.38168426       1.16094469       0.00000000
Si      -0.03451851       3.65010749      -0.63017566       0.00000000
Si      -1.57164291       1.97716032       2.77652748       0.00000000
Si      -3.34793709       1.34489867      -1.22495285       0.00000000
