10
Lattice="16.28999089631971 0.0 0.0 0.0 16.28999089631971 0.0 0.0 0.0 34.63643526849801" Properties=species:S:1:pos:R:3:initial_magmoms:R:1 pbc="T T T"
Si       0.61494750       0.19041381      -2.31634754       0.00000000
Si      -1.33063236       1.98505053      -0.32322739       0.00000000
Si      -1.67562198      -1.60313148       0.67063103       0.00000000
Si       1.62864162       0.03223791       2.13578770       0.00000000
Si      -0.68201343       2.89250127       1.80608329       0.00000000
Si      -2.35804266      -2.47067172      -1.48940219       0.00000000
Si       1.27389429      -1.99373310      -2.88022902       0.00000000
Si       2.17904814       1.99772415      -2.50127157       0.00000000
Si      -3.41327628       1.28969559      -1.32332039       0.00000000
Si       3.12554601       1.86735528       1.55112435       0.00000000
