10
Lattice="16.28999089631971 0.0 0.0 0.0 16.28999089631971 0.0 0.0 0.0 34.63643526849801" Properties=species:S:1:pos:R:3:initial_magmoms:R:1 pbc="T T T"
Si      -0.20492170       1.40634828       1.86077425       0.00000000
Si      -0.78381943      -2.05516269       0.89434789       0.00000000
Si       2.34140796      -0.40751064       0.14270219       0.00000000
Si      -1.20460642       0.57375009      -2.03419898       0.00000000
Si      -0.84914233      -1.44216999      -3.24200679       0.00000000
Si      -1.92876208       0.42868764       3.11160054       0.00000000
Si      -2.93232382      -2.36149614       0.01645232       0.00000000
Si      -0.36912490       3.61473471       1.10175099       0.00000000
Si       3.08144637      -0.94354938      -2.02027513       0.00000000
Si       0.72512068       3.64765680      -0.98810878       0.00000000
