10
Lattice="16.28999089631971 0.0 0.0 0.0 16.28999089631971 0.0 0.0 0.0 34.63643526849801" Properties=species:S:1:pos:R:3:initial_magmoms:R:1 pbc="T T T"
Si      -1.98700044      -1.02159477       0.61264961       0.00000000
Si       1.74058650      -1.00768311       1.20046488       0.00000000
Si       0.53841708       2.25903204       0.39932369       0.00000000
Si       0.20211003      -0.91013859      -2.16851915       0.00000000
Si       3.57135444      -0.75406410      -0.26427615       0.00000000
Si      -1.38261375      -3.22906896       1.11432402       0.00000000
Si       2.51947656      -1.47273003      -2.34568462       0.00000000
Si       2.60965800       2.61369792      -0.79923619       0.00000000
Si      -0.23890914       2.67449220       2.75616124       0.00000000
Si      -2.98983565      -0.13045032       2.49683810       0.00000000
