10
Lattice="16.28999089631971 0.0 0.0 0.0 16.28999089631971 0.0 0.0 0.0 34.63643526849801" Properties=species:S:1:pos:R:3:initial_magmoms:R:1 pbc="T T T"
Si       1.35652696       1.35795069       1.35612111       0.00000000
Si      -1.35731603       1.35710361      -1.35757584       0.00000000
Si      -1.35909164      -1.35723556       1.35643284       0.00000000
Si       1.35803868      -1.35746036      -1.35785293       0.00000000
Si      -2.71411013      -0.00153126       2.71442431       0.00000000
Si      -2.71482689      -2.71454348      -0.00079664       0.00000000
Si       0.00096046       2.71150308       2.71802650       0.00000000
Si       2.71491423      -2.71485984       0.00027709       0.00000000
Si      -2.71487576       2.71521720      -0.00017318       0.00000000
Si      -0.00013449      -2.71500442      -2.71525559       0.00000000
