10
Lattice="16.28999089631971 0.0 0.0 0.0 16.28999089631971 0.0 0.0 0.0 34.63643526849801" Properties=species:S:1:pos:R:3:initial_magmoms:R:1 pbc="T T T"
Si      -1.03221585       0.07943004       2.24177525       0.00000000
Si       1.05629247      -2.01971565      -1.15135039       0.00000000
Si       2.06860194       1.49812614       0.17131190       0.00000000
Si      -1.95399202       0.80145171      -1.49535966       0.00000000
Si      -0.20476530       1.71646101      -2.77181692       0.00000000
Si       1.02154590       3.18081798      -1.22211266       0.00000000
Si       0.77913441       0.96218514       3.62574407       0.00000000
Si       2.45866599      -0.97259445      -2.77455320       0.00000000
Si       3.71226294       0.47741103      -1.32283548       0.00000000
Si      -3.23456588       1.11177621       2.04968148       0.00000000
