10
Lattice="16.28999089631971 0.0 0.0 0.0 16.28999089631971 0.0 0.0 0.0 34.63643526849801" Properties=species:S:1:pos:R:3:initial_magmoms:R:1 pbc="T T T"
Si      -1.20484098       1.46828286       1.37652198       0.00000000
Si       2.05091100       0.82552833      -0.97435811       0.00000000
Si       0.57026403      -0.94468968       2.16495160       0.00000000
Si      -1.81135026      -0.88275510      -1.38396882       0.00000000
Si      -0.00180819       1.06189623       3.35280881       0.00000000
Si       1.28946753       0.53594100      -3.45443217       0.00000000
Si      -3.09579070       0.32117364       2.09640605       0.00000000
Si       3.72632121      -0.70885935      -0.02192488       0.00000000
Si      -0.77913441      -0.96218514      -3.62574407       0.00000000
Si      -0.75422700      -2.83478580       2.51252842       0.00000000
