10
Lattice="16.28999089631971 0.0 0.0 0.0 16.28999089631971 0.0 0.0 0.0 34.63643526849801" Properties=species:S:1:pos:R:3:initial_magmoms:R:1 pbc="T T T"
Si      -2.22890531      -0.65422269       0.14765521       0.00000000
Si       1.15748595      -1.55082429       1.30776862       0.00000000
Si       0.77535513       0.50117814      -2.19802941       0.00000000
Si       0.24418710       1.97499960       1.33145995       0.00000000
Si       3.22872687      -1.19615841       0.10920874       0.00000000
Si      -3.06759338       0.78353271      -1.48895191       0.00000000
Si      -0.24091281       3.60090450      -0.27861564       0.00000000
Si      -2.89860155       0.01679499       2.27942508       0.00000000
Si       3.56047272       1.14126111       0.02220197       0.00000000
Si       2.52350019       2.04221214      -1.88432704       0.00000000
