10
Lattice="16.28999089631971 0.0 0.0 0.0 16.28999089631971 0.0 0.0 0.0 34.63643526849801" Properties=species:S:1:pos:R:3:initial_magmoms:R:1 pbc="T T T"
Si      -1.35779105       1.35091341      -1.35930766       0.00000000
Si       1.35161388      -1.35677618      -1.36110876       0.00000000
Si       1.35707103       1.35562122       1.35702166       0.00000000
Si      -1.35749457      -1.35899162       1.35698702       0.00000000
Si       2.71503801       2.71178001      -0.00377537       0.00000000
Si      -0.00021177       2.71365336       2.71501313       0.00000000
Si      -2.71495011       2.71448415      -0.00017318       0.00000000
Si       2.71479366      -0.00099369       2.71490922       0.00000000
Si      -2.71553325      -0.00153126       2.71483995       0.00000000
Si      -0.00928530      -2.71263150      -2.71841790       0.00000000
