10
Lattice="16.28999089631971 0.0 0.0 0.0 16.28999089631971 0.0 0.0 0.0 34.63643526849801" Properties=species:S:1:pos:R:3:initial_magmoms:R:1 pbc="T T T"
Si       0.66969624      -0.67101768      -2.13176987       0.00000000
Si       0.87405103      -1.66190580       1.41694272       0.00000000
Si      -2.25632727       0.23798061      -0.74551505       0.00000000
Si       1.37493595       1.87724331       0.67565332       0.00000000
Si       2.89860155      -0.01679499      -2.27942508       0.00000000
Si       2.77000829       1.01522538       2.29677794       0.00000000
Si       3.27876128      -1.15215912       1.38518109       0.00000000
Si      -0.30796182      -1.47676995       3.45574835       0.00000000
Si      -2.91527406       2.42212752      -0.18163357       0.00000000
Si       3.14278865       1.95820461      -0.94796513       0.00000000
