10
Lattice="16.28999089631971 0.0 0.0 0.0 16.28999089631971 0.0 0.0 0.0 34.63643526849801" Properties=species:S:1:pos:R:3:initial_magmoms:R:1 pbc="T T T"
Si       1.32963284      -1.29152007      -1.41539447       0.00000000
Si      -1.34751367      -1.35772263       1.34328137       0.00000000
Si       1.36586669       1.36106208       1.34657184       0.00000000
Si      -1.43101621       1.22955291      -1.40617078       0.00000000
Si      -2.70893413       0.00130320       2.70501359       0.00000000
Si       0.00750130       2.71496476       2.70463259       0.00000000
Si       0.00767864      -2.71612944       2.70535995       0.00000000
Si       2.72227308      -2.70122409      -0.02207035       0.00000000
Si       2.72349483      -0.00021177       2.70577559       0.00000000
Si      -2.72463769       2.70734913      -0.03047662       0.00000000
