10
Lattice="16.28999089631971 0.0 0.0 0.0 16.28999089631971 0.0 0.0 0.0 34.63643526849801" Properties=species:S:1:pos:R:3:initial_magmoms:R:1 pbc="T T T"
Si       1.35632169       1.35826020       1.35608647       0.00000000
Si      -1.35825694      -1.35731538       1.35639820       0.00000000
Si       1.35575154      -1.35985662      -1.35961939       0.00000000
Si      -1.35762815       1.36127385      -1.35920375       0.00000000
Si       2.71360449      -2.71448415      -0.00100446       0.00000000
Si       2.71419093       0.00019548       2.71390477       0.00000000
Si      -0.00061902      -2.71477737       2.71383549       0.00000000
Si      -0.00122175      -2.70101232      -2.72784594       0.00000000
Si      -2.72349483       0.00021177      -2.70577559       0.00000000
Si      -2.71543767       0.00032580       2.71404331       0.00000000
