10
Lattice="16.28999089631971 0.0 0.0 0.0 16.28999089631971 0.0 0.0 0.0 34.63643526849801" Properties=species:S:1:pos:R:3:initial_magmoms:R:1 pbc="T T T"
Si       1.35825694       1.35731538      -1.35639820       0.00000000
Si      -1.35718073       1.35764118       1.35764511       0.00000000
Si       1.35763792      -1.35746199       1.35743729       0.00000000
Si      -1.35755925      -1.35860229      -1.35681384       0.00000000
Si       0.00106862      -2.71357191       2.71435504       0.00000000
Si       2.71389445      -2.71472850       0.00058882       0.00000000
Si      -2.71469007       2.71482624       0.00013855       0.00000000
Si       0.00049522       2.71440270       2.71532486       0.00000000
Si      -2.71449459      -2.71528236       0.00055418       0.00000000
Si       2.71526281       0.00008145       2.71463213       0.00000000
