10
Lattice="16.28999089631971 0.0 0.0 0.0 16.28999089631971 0.0 0.0 0.0 34.63643526849801" Properties=species:S:1:pos:R:3:initial_magmoms:R:1 pbc="T T T"
Si      -1.35409648       1.35772263      -1.35909984       0.00000000
Si       1.36067112      -1.35659862      -1.35979257       0.00000000
Si      -1.35255707      -1.34317566       1.38109399       0.00000000
Si       1.35610992       1.36265850       1.38379564       0.00000000
Si      -2.71029773      -2.71524978       0.00259773       0.00000000
Si      -2.71177242       0.00096111      -2.71677959       0.00000000
Si      -2.71095218       2.71825969       0.00183573       0.00000000
Si       2.71863810      -2.71186146      -0.00284019       0.00000000
Si       0.00304623      -2.71414206      -2.71698741       0.00000000
Si       2.71715571       2.71472938       0.00346365       0.00000000
