10
Lattice="16.28999089631971 0.0 0.0 0.0 16.28999089631971 0.0 0.0 0.0 34.71893929493243" Properties=species:S:1:pos:R:3:initial_magmoms:R:1 pbc="T T T"
Si       1.50592905      -1.19466592       1.30147141       0.00000000
Si      -1.19583261       1.54503320       1.28527155       0.00000000
Si      -1.67342283      -0.97710352      -1.33175294       0.00000000
Si       1.84482621       0.83985538      -1.28295440       0.00000000
Si       0.35437266       0.61650319      -3.07184810       0.00000000
Si      -0.11044620      -1.67615859      -2.94106178       0.00000000
Si       0.15866460      -2.52449292       2.65554552       0.00000000
Si      -2.63278980      -2.55472716       0.06498347       0.00000000
Si      -2.56207491       0.18962863       2.65325407       0.00000000
Si       2.66810652      -2.64138996      -0.16408527       0.00000000
