10
Lattice="16.28999089631971 0.0 0.0 0.0 16.28999089631971 0.0 0.0 0.0 34.71893929493243" Properties=species:S:1:pos:R:3:initial_magmoms:R:1 pbc="T T T"
Si       1.35650088       1.34597591      -1.38525173       0.00000000
Si      -1.36239786      -1.36880865      -1.37980086       0.00000000
Si       1.32913368      -1.42751781       1.38243950       0.00000000
Si      -1.37326329       1.29563981       1.53905672       0.00000000
Si      -2.08428921      -0.49675703       2.92840529       0.00000000
Si      -0.25334208      -2.46475098       2.82247775       0.00000000
Si       2.70842427       2.69239328      -0.01985924       0.00000000
Si      -2.71837746       2.68631711       0.00308999       0.00000000
Si       2.69606016      -2.73000105      -0.02937224       0.00000000
Si      -2.72230335      -2.71509570      -0.01840105       0.00000000
