10
Lattice="16.28999089631971 0.0 0.0 0.0 16.28999089631971 0.0 0.0 0.0 34.71893929493243" Properties=species:S:1:pos:R:3:initial_magmoms:R:1 pbc="T T T"
Si       1.16036928       1.82110797       1.01320337       0.00000000
Si       1.73600901      -1.01252939      -1.28845528       0.00000000
Si      -2.16164228      -2.14478117       0.74795053       0.00000000
Si      -1.79839319       2.28051855      -1.34924817       0.00000000
Si      -0.08348625      -1.77963607      -2.74703345       0.00000000
Si       0.32441535      -0.54145028       3.25396497       0.00000000
Si       1.57501494      -2.15967023       2.00151325       0.00000000
Si      -2.05785706      -0.55012796       2.70620395       0.00000000
Si      -0.76188330       3.16635246       1.37348201       0.00000000
Si       2.44703493       0.77986746      -2.67780385       0.00000000
