10
Lattice="16.28999089631971 0.0 0.0 0.0 16.28999089631971 0.0 0.0 0.0 34.71893929493243" Properties=species:S:1:pos:R:3:initial_magmoms:R:1 pbc="T T T"
Si      -1.18649844       1.43008281       1.47132698       0.00000000
Si       1.15012287       1.79085744      -1.18015504       0.00000000
Si      -0.97932222      -1.22267853      -1.89033763       0.00000000
Si       1.52466255      -1.28422215       1.46092170       0.00000000
Si      -2.42791047      -2.57357565       0.06570563       0.00000000
Si       0.86928327      -1.04954841      -3.43647702       0.00000000
Si      -2.17259730       0.74293803      -2.95686932       0.00000000
Si      -2.52858267       0.06946056       2.84541309       0.00000000
Si      -2.65329891       2.77781967       0.00773886       0.00000000
Si      -0.64892844       2.68975593      -2.71081606       0.00000000
