10
Lattice="16.28999089631971 0.0 0.0 0.0 16.28999089631971 0.0 0.0 0.0 34.71893929493243" Properties=species:S:1:pos:R:3:initial_magmoms:R:1 pbc="T T T"
Si      -0.30740859      -0.46112103       2.25298267       0.00000000
Si       1.51780446       1.85328398      -0.00072910       0.00000000
Si       1.25059959      -1.61821995      -1.25245172       0.00000000
Si      -2.38227241      -0.00867768      -0.54776101       0.00000000
Si      -0.32441535       0.54145028      -3.25396497       0.00000000
Si       0.83595393       2.36255825      -2.24076159       0.00000000
Si      -1.54937448       1.42070303       3.08057849       0.00000000
Si       0.31449474      -3.73437240      -0.82155472       0.00000000
Si      -2.48605762      -1.60333089      -2.50601444       0.00000000
Si       1.80382428      -0.66736872       3.36898888       0.00000000
