10
Lattice="16.28999089631971 0.0 0.0 0.0 16.28999089631971 0.0 0.0 0.0 34.71893929493243" Properties=species:S:1:pos:R:3:initial_magmoms:R:1 pbc="T T T"
Si       2.02637826       0.67557888       0.90817852       0.00000000
Si      -1.29489210       1.71602118       0.92324655       0.00000000
Si      -0.81176328      -2.05666137       0.79846661       0.00000000
Si       0.22033854       0.15566724      -2.38442865       0.00000000
Si      -2.24788968      -2.59674003      -1.05476197       0.00000000
Si       2.17945539       2.90113497       0.15512431       0.00000000
Si      -0.10443519       3.65190849       0.17835129       0.00000000
Si      -1.59790239      -1.13316498      -3.15577975       0.00000000
Si       0.92633085      -3.67228728       0.56591903       0.00000000
Si       2.02349493       0.48058758       3.21830860       0.00000000
