10
Lattice="16.28999089631971 0.0 0.0 0.0 16.28999089631971 0.0 0.0 0.0 34.71893929493243" Properties=species:S:1:pos:R:3:initial_magmoms:R:1 pbc="T T T"
Si       1.79786214       0.41352002       1.49017243       0.00000000
Si      -0.00863370      -2.37409713       0.05305057       0.00000000
Si       1.03654899       1.19775320      -1.81288515       0.00000000
Si      -2.21402603       0.96014726       0.13977853       0.00000000
Si       0.16935084       0.38512655       3.24566713       0.00000000
Si       1.10429910      -2.63636613      -2.01140815       0.00000000
Si      -1.44554202       3.22761752      -0.04687059       0.00000000
Si       1.39906665      -0.61265550      -3.23403628       0.00000000
Si       2.36527542       2.68351523       0.99955882       0.00000000
Si      -0.54894042       2.92949423      -2.27624437       0.00000000
