10
Lattice="16.28999089631971 0.0 0.0 0.0 16.28999089631971 0.0 0.0 0.0 34.71893929493243" Properties=species:S:1:pos:R:3:initial_magmoms:R:1 pbc="T T T"
Si       0.41278860      -1.59855399       1.68904262       0.00000000
Si      -2.04069717      -1.03397517      -0.66809692       0.00000000
Si       0.01931994       1.86323391       1.50110890       0.00000000
Si       1.26136728      -0.02472822      -2.13288979       0.00000000
Si       0.74723859      -3.46458978       0.35993144       0.00000000
Si      -2.26589013      -0.37308987      -2.87608382       0.00000000
Si      -1.31158935      -3.36896748      -0.77530907       0.00000000
Si      -2.16714015       1.82861766       2.50875724       0.00000000
Si       2.20848417      -0.86599269       2.95795112       0.00000000
Si       1.46494341       1.36875096       3.36614192       0.00000000
