10
Lattice="16.28999089631971 0.0 0.0 0.0 16.28999089631971 0.0 0.0 0.0 34.71893929493243" Properties=species:S:1:pos:R:3:initial_magmoms:R:1 pbc="T T T"
Si      -1.48862907      -0.74371995       1.62484727       0.00000000
Si       0.24768945       2.34597177       0.07919394       0.00000000
Si      -1.10600955      -0.71431650      -1.99130588       0.00000000
Si       2.18672073      -0.95588091      -0.31743544       0.00000000
Si       2.40795522       0.23302845      -2.29950607       0.00000000
Si       1.66441446       2.46777210      -1.89131528       0.00000000
Si      -1.36889757      -3.01780395      -1.38157152       0.00000000
Si      -1.93554522      -2.93369868       0.92744754       0.00000000
Si       1.39848021       2.42396829       2.34352971       0.00000000
Si       0.61225965      -0.49953285      -3.56841457       0.00000000
