10
Lattice="16.28999089631971 0.0 0.0 0.0 16.28999089631971 0.0 0.0 0.0 34.71893929493243" Properties=species:S:1:pos:R:3:initial_magmoms:R:1 pbc="T T T"
Si      -0.30788263       2.33261397      -0.05777235       0.00000000
Si      -1.76397961      -0.64573560      -1.46579972       0.00000000
Si      -1.33108196      -0.66655422       1.94033844       0.00000000
Si       2.31131317      -0.96625764      -0.03767007       0.00000000
Si      -0.07206370      -0.39123693      -3.14355868       0.00000000
Si      -2.63964856      -1.92382945       0.34468982       0.00000000
Si       1.95104353       2.69444745       0.30087450       0.00000000
Si       3.18652600       0.89173089       1.18922849       0.00000000
Si       0.69642031       1.87623333      -3.33020780       0.00000000
Si      -0.08718408      -2.41394831       3.04325561       0.00000000
