10
Lattice="16.28999089631971 0.0 0.0 0.0 16.28999089631971 0.0 0.0 0.0 34.71893929493243" Properties=species:S:1:pos:R:3:initial_magmoms:R:1 pbc="T T T"
Si      -0.94512951       0.80270604       2.02060868       0.00000000
Si      -1.37754756      -1.85375313      -0.58789613       0.00000000
Si      -0.50552757       0.87977403      -2.16556033       0.00000000
Si       2.30707125       0.09594810       0.65021666       0.00000000
Si      -3.40237501      -1.32367653       0.46381057       0.00000000
Si      -2.58967994       2.31511851       1.26644346       0.00000000
Si      -3.61806113       0.88381395      -0.34725902       0.00000000
Si       2.29198671       0.22398750       3.04599840       0.00000000
Si       0.68903442       1.92306708       3.24761140       0.00000000
Si       0.10643886      -1.12774041      -3.70666547       0.00000000
