10
Lattice="16.28999089631971 0.0 0.0 0.0 16.28999089631971 0.0 0.0 0.0 34.71893929493243" Properties=species:S:1:pos:R:3:initial_magmoms:R:1 pbc="T T T"
Si      -1.19714070      -0.37887282      -1.99960371       0.00000000
Si      -1.69191591      -0.25449867       1.67775896       0.00000000
Si       0.76848401       2.26747026      -0.18664912       0.00000000
Si       2.21402603      -0.96014726      -0.13977853       0.00000000
Si       0.07206370       0.39123693       3.14355868       0.00000000
Si       1.66508561       1.96934697      -2.41602290       0.00000000
Si      -1.12344799      -2.73620591      -2.12278657       0.00000000
Si       0.25989392       0.51526899      -3.66222520       0.00000000
Si      -3.43463640       0.35513829      -1.40420828       0.00000000
Si       3.25057502       0.23760594      -1.95266368       0.00000000
