10
Lattice="16.28999089631971 0.0 0.0 0.0 16.28999089631971 0.0 0.0 0.0 34.71893929493243" Properties=species:S:1:pos:R:3:initial_magmoms:R:1 pbc="T T T"
Si      -1.63416393      -1.12036104      -1.22700272       0.00000000
Si       1.60295229      -1.69907958      -0.20161299       0.00000000
Si      -1.11293280       0.26226900       2.06445872       0.00000000
Si       0.29476755       2.02371063      -1.22262813       0.00000000
Si      -1.10429910       2.63636613       2.01140815       0.00000000
Si       1.61803683      -1.82711898      -2.59739474       0.00000000
Si      -2.64453489      -2.38622436       0.49693246       0.00000000
Si      -1.81646532       2.22995832      -2.33863434       0.00000000
Si      -3.37859161      -0.50803623       1.73021931       0.00000000
Si      -0.68903442      -1.92306708      -3.24761140       0.00000000
