10
Lattice="16.28999089631971 0.0 0.0 0.0 16.28999089631971 0.0 0.0 0.0 34.71893929493243" Properties=species:S:1:pos:R:3:initial_magmoms:R:1 pbc="T T T"
Si      -1.08704799      -1.55359359       1.52286523       0.00000000
Si       1.53953532       1.00323594       1.59649719       0.00000000
Si      -0.61833582      -0.89402778      -2.28443804       0.00000000
Si      -1.23901740       1.96846731      -1.18047931       0.00000000
Si      -2.61946458       0.60233904      -2.49098113       0.00000000
Si       2.45519622       2.81042640       0.36232705       0.00000000
Si      -2.74815558      -2.65676868       0.19525942       0.00000000
Si      -2.32595136      -0.24391017       3.04980156       0.00000000
Si      -2.80199403       2.66752238       0.42882952       0.00000000
Si       1.19122254       1.66302981      -3.34992817       0.00000000
