10
Lattice="16.28999089631971 0.0 0.0 0.0 16.28999089631971 0.0 0.0 0.0 34.71893929493243" Properties=species:S:1:pos:R:3:initial_magmoms:R:1 pbc="T T T"
Si      -1.24642935       1.38644353       1.45562706       0.00000000
Si       0.71439795       1.96962553      -1.25875116       0.00000000
Si       1.48108680      -1.32606043       1.42797341       0.00000000
Si      -1.88151129      -0.99348963      -1.22993443       0.00000000
Si      -2.74349664       2.61653401       0.06015060       0.00000000
Si       2.72052774       2.68851952       0.04122876       0.00000000
Si      -2.59317252       0.03305241       2.81890169       0.00000000
Si      -3.62045250       0.68056525      -1.11463342       0.00000000
Si       0.12012246      -2.68621027       2.81185375       0.00000000
Si       0.12015504       2.74185298       2.81845035       0.00000000
