10
Lattice="16.28999089631971 0.0 0.0 0.0 16.28999089631971 0.0 0.0 0.0 34.71893929493243" Properties=species:S:1:pos:R:3:initial_magmoms:R:1 pbc="T T T"
Si       1.65350016       1.04987421      -1.29151093       0.00000000
Si      -1.23256656       1.49204997       1.37478050       0.00000000
Si       1.49706729      -1.23009048       1.39547647       0.00000000
Si      -0.87695586      -1.93596876      -1.17478402       0.00000000
Si       0.29318742       0.94465710      -3.20848109       0.00000000
Si       3.45789459      -0.64690848      -1.31890176       0.00000000
Si      -2.56259619       0.12763215       2.75833447       0.00000000
Si       0.15032412      -2.58348160       2.75875110       0.00000000
Si       2.74349664      -2.61653401      -0.06015060       0.00000000
Si      -2.72178207      -2.77582414       0.10817039       0.00000000
