10
Lattice="16.28999089631971 0.0 0.0 0.0 16.28999089631971 0.0 0.0 0.0 34.71893929493243" Properties=species:S:1:pos:R:3:initial_magmoms:R:1 pbc="T T T"
Si      -2.30668029       0.45836802       0.12224545       0.00000000
Si       0.65254482       1.17809280      -1.93270027       0.00000000
Si       0.12554703      -2.12399120      -1.07385739       0.00000000
Si       1.00883970       1.05700923       2.04105814       0.00000000
Si      -0.38439513       3.23214777      -1.60075231       0.00000000
Si       0.08851986      -3.59465633       0.83422714       0.00000000
Si      -2.53184067       2.56331295      -0.88384053       0.00000000
Si      -2.85790131       0.63286650       2.35647988       0.00000000
Si       2.40831360      -2.31300570      -1.87031031       0.00000000
Si      -1.03074975       1.62735471       3.43936421       0.00000000
