10
Lattice="16.28999089631971 0.0 0.0 0.0 16.28999089631971 0.0 0.0 0.0 34.71893929493243" Properties=species:S:1:pos:R:3:initial_magmoms:R:1 pbc="T T T"
Si       0.02860524      -2.26530599      -0.51043813       0.00000000
Si       1.48678830      -0.25792934       1.83843830       0.00000000
Si       0.87772149       1.56008190      -1.59516256       0.00000000
Si      -2.28276657       0.18901450       0.79645291       0.00000000
Si       0.56795085       3.58043286      -0.50144592       0.00000000
Si      -0.01024641      -1.12376795       3.57709431       0.00000000
Si      -2.31979374      -1.28165063       2.70453744       0.00000000
Si       2.25303732      -2.98879376      -0.68129013       0.00000000
Si      -2.40831360       2.31300570       1.87031031       0.00000000
Si      -0.32490405      -3.58916171       1.38914026       0.00000000
