10
Lattice="16.28999089631971 0.0 0.0 0.0 16.28999089631971 0.0 0.0 0.0 34.71893929493243" Properties=species:S:1:pos:R:3:initial_magmoms:R:1 pbc="T T T"
Si       0.60532011       2.20798244      -0.60640133       0.00000000
Si       0.11126070      -1.24706859      -2.05591786       0.00000000
Si      -2.28362994      -0.22033365       0.76204642       0.00000000
Si       1.69158618      -0.19557774       1.72230338       0.00000000
Si      -2.25883656      -1.95959319       2.30849828       0.00000000
Si      -1.27796679       3.24671429      -1.72164372       0.00000000
Si      -2.19828663      -1.40495127      -2.92847473       0.00000000
Si       1.48838472       1.97962922       3.06769775       0.00000000
Si       0.89322957       3.60946001       1.34067259       0.00000000
Si       3.00421809       2.15562638      -1.40733299       0.00000000
