10
Lattice="16.28999089631971 0.0 0.0 0.0 16.28999089631971 0.0 0.0 0.0 34.71893929493243" Properties=species:S:1:pos:R:3:initial_magmoms:R:1 pbc="T T T"
Si       1.61215614      -1.25484151       1.18861921       0.00000000
Si       1.61552817       1.67742854      -0.57445989       0.00000000
Si      -1.04270661       1.72308941       1.30564224       0.00000000
Si      -1.87492036      -1.22324868      -0.97782475       0.00000000
Si      -1.93911762      -0.13903841       2.47118234       0.00000000
Si      -2.64567682      -1.97857593       1.13243370       0.00000000
Si       3.63995163       0.33876521      -0.55147594       0.00000000
Si       0.82222146       2.70078263       2.39176619       0.00000000
Si       3.17513277      -1.95389658      -0.42068962       0.00000000
Si       1.39878972       2.08243052      -2.83185187       0.00000000
