10
Lattice="16.28999089631971 0.0 0.0 0.0 16.28999089631971 0.0 0.0 0.0 34.71893929493243" Properties=species:S:1:pos:R:3:initial_magmoms:R:1 pbc="T T T"
Si      -0.72653400       2.21526081       0.47422626       0.00000000
Si       2.32551153       0.45240588      -0.56043343       0.00000000
Si      -2.15915805      -0.25472673      -1.16204355       0.00000000
Si       0.24203682      -2.71683710       0.13835505       0.00000000
Si      -1.89667728      -0.66536505       2.50792333       0.00000000
Si      -0.15773607      -2.33941993       2.39262232       0.00000000
Si       0.63377874       2.32047792       2.39119642       0.00000000
Si       2.43817317       0.62369523       2.36380558       0.00000000
Si       1.73035638       2.08223667      -2.28745859       0.00000000
Si      -3.38713083      -0.88871724       0.71902963       0.00000000
