10
Lattice="16.28999089631971 0.0 0.0 0.0 16.28999089631971 0.0 0.0 0.0 34.71893929493243" Properties=species:S:1:pos:R:3:initial_magmoms:R:1 pbc="T T T"
Si      -1.35192339      -1.34641737      -1.36539249       0.00000000
Si      -1.41250590       1.26025956       1.41077017       0.00000000
Si       1.36083402       1.37241621      -1.35952498       0.00000000
Si       1.43358516      -1.22694651       1.42500494       0.00000000
Si       2.17521999       0.77551803       2.66561749       0.00000000
Si       0.35676729       2.46580101       2.61558747       0.00000000
Si       2.71764441      -2.67227187      -0.00565919       0.00000000
Si      -2.70842427      -2.69239328       0.01985924       0.00000000
Si       0.00156384      -2.70147821      -2.72120254       0.00000000
Si      -2.71127502       0.01202202      -2.71984851       0.00000000
