10
Lattice="16.28999089631971 0.0 0.0 0.0 16.28999089631971 0.0 0.0 0.0 34.71893929493243" Properties=species:S:1:pos:R:3:initial_magmoms:R:1 pbc="T T T"
Si      -1.19742903       1.94973381       0.34482870       0.00000000
Si      -0.28564515      -1.53274239       1.75112012       0.00000000
Si       2.28713229       0.45250362      -0.26827339       0.00000000
Si      -0.70187094      -1.08315468      -1.97575178       0.00000000
Si       0.02412549      -3.55309335       0.65740348       0.00000000
Si      -1.49527539      -3.12248349      -1.03709002       0.00000000
Si      -0.17726778       2.94479217       2.25169807       0.00000000
Si       3.27329631      -0.61274835       1.67168314       0.00000000
Si      -2.60936478      -1.62207675       2.19017607       0.00000000
Si       1.57472172      -1.50403941       3.14803742       0.00000000
