10
Lattice="16.28999089631971 0.0 0.0 0.0 16.28999089631971 0.0 0.0 0.0 34.71893929493243" Properties=species:S:1:pos:R:3:initial_magmoms:R:1 pbc="T T T"
Si       0.79127046      -1.00032003      -1.89551627       0.00000000
Si       0.70187094       1.08315468       1.97575178       0.00000000
Si      -0.79340445      -2.03932881       0.93866177       0.00000000
Si      -1.97296335       1.08173745      -1.05698398       0.00000000
Si      -2.75871150      -1.11306312       1.93801227       0.00000000
Si      -3.36227229       0.97904529       0.91342108       0.00000000
Si       0.72599643      -2.46993867       2.63315527       0.00000000
Si       2.98900323       1.53565830       1.70747839       0.00000000
Si       0.41622579      -0.44958771       3.72687190       0.00000000
Si      -0.49555809       3.03288849       2.32058048       0.00000000
