10
Lattice="16.28999089631971 0.0 0.0 0.0 16.28999089631971 0.0 0.0 0.0 34.71893929493243" Properties=species:S:1:pos:R:3:initial_magmoms:R:1 pbc="T T T"
Si      -1.95967071      -0.67917897      -1.14030948       0.00000000
Si      -0.46612206       1.81597662       1.47066037       0.00000000
Si       1.75611087       0.20916360      -1.61790348       0.00000000
Si       0.98020188      -1.75668102       1.35820566       0.00000000
Si      -1.06331346      -0.08894340       2.86986913       0.00000000
Si       1.98355185      -0.14436198       2.83837903       0.00000000
Si      -1.73843622       0.50973039      -3.12238011       0.00000000
Si      -1.69859088      -3.02482494      -1.39719505       0.00000000
Si       3.82775904       0.32125509      -0.42968183       0.00000000
Si       1.41941286      -1.48328595      -3.32503467       0.00000000
