10
Lattice="16.28999089631971 0.0 0.0 0.0 16.28999089631971 0.0 0.0 0.0 34.71893929493243" Properties=species:S:1:pos:R:3:initial_magmoms:R:1 pbc="T T T"
Si      -1.16217747       1.44672404       1.46555668       0.00000000
Si       0.91566090       1.80719046      -1.23417014       0.00000000
Si      -1.53953532      -1.00323594      -1.59649719       0.00000000
Si       1.56193407      -1.24848189       1.41742579       0.00000000
Si      -2.62658331      -2.55682953      -0.07363197       0.00000000
Si      -0.82328031       3.48124535      -1.11886913       0.00000000
Si      -2.66810652       2.64138996       0.16408527       0.00000000
Si      -2.50944192       0.11689704       2.81963079       0.00000000
Si       0.20145843      -2.59980255       2.81317307       0.00000000
Si       2.79717219       2.80068010      -0.00423571       0.00000000
