10
Lattice="16.28999089631971 0.0 0.0 0.0 16.28999089631971 0.0 0.0 0.0 34.71893929493243" Properties=species:S:1:pos:R:3:initial_magmoms:R:1 pbc="T T T"
Si      -0.71581518      -1.83847311      -1.26901266       0.00000000
Si       1.86768108       0.85844441      -1.17145239       0.00000000
Si      -1.71711261       1.73488730      -0.01975509       0.00000000
Si      -1.67381379      -0.99346194       2.14434705       0.00000000
Si       0.57303333       2.16312859      -2.58486119       0.00000000
Si      -2.15697519      -0.58699386      -2.58871500       0.00000000
Si      -2.10918033       1.51460252       2.25416311       0.00000000
Si      -1.66793310      -3.07014372       0.41246123       0.00000000
Si      -3.52390167       0.71548938      -1.17690326       0.00000000
Si      -0.71102592       3.60845396      -1.15419706       0.00000000
