10
Lattice="16.28999089631971 0.0 0.0 0.0 16.28999089631971 0.0 0.0 0.0 34.71893929493243" Properties=species:S:1:pos:R:3:initial_magmoms:R:1 pbc="T T T"
Si      -1.27247706      -0.63066735       1.92926310       0.00000000
Si       2.27989953      -0.63418599      -0.41992581       0.00000000
Si      -1.19881368      -0.40837401      -2.06397266       0.00000000
Si       0.09495441       2.39465836      -0.39857365       0.00000000
Si      -1.63418022       2.09969045      -1.95415659       0.00000000
Si       0.19093509       0.12004101       3.56851873       0.00000000
Si       3.55529250      -0.01016496       1.48628390       0.00000000
Si      -3.55636764       0.12010617       1.95249008       0.00000000
Si      -3.49317873      -1.05456573      -1.92277065       0.00000000
Si       3.56679324       0.95457771      -1.88176756       0.00000000
