10
Lattice="16.28999089631971 0.0 0.0 0.0 16.28999089631971 0.0 0.0 0.0 34.71893929493243" Properties=species:S:1:pos:R:3:initial_magmoms:R:1 pbc="T T T"
Si      -1.46341215      -0.75070836      -1.63925563       0.00000000
Si      -0.02860524       2.26530599       0.51043813       0.00000000
Si      -0.35350929      -1.32385572       1.89957839       0.00000000
Si       2.22443208      -0.72348777      -0.17085200       0.00000000
Si       1.45818306       2.00737665       2.34887643       0.00000000
Si      -1.61648928      -2.97626445      -0.88620142       0.00000000
Si       3.00701997       0.25185969       1.82795318       0.00000000
Si      -0.19093509      -0.12004101      -3.56851873       0.00000000
Si      -2.31137181       2.45432049       1.30689104       0.00000000
Si      -1.61937261      -3.17125575       1.42392865       0.00000000
