10
Lattice="16.28999089631971 0.0 0.0 0.0 16.28999089631971 0.0 0.0 0.0 34.71893929493243" Properties=species:S:1:pos:R:3:initial_magmoms:R:1 pbc="T T T"
Si       1.35870655       1.35524655      -1.39344541       0.00000000
Si      -1.35840748      -1.35775521      -1.39448698       0.00000000
Si       1.36014007      -1.43899344       1.44000353       0.00000000
Si      -1.43211973       1.46362392       1.49423454       0.00000000
Si      -2.70085009       2.71015101      -0.05214788       0.00000000
Si      -2.72552944      -2.70350469      -0.01340152       0.00000000
Si       2.72112070       2.71635750       0.00513841       0.00000000
Si       2.71737400      -2.73681774      -0.01385286       0.00000000
Si      -2.71306759      -0.00135207      -2.75672004       0.00000000
Si       0.00178213       2.71425609      -2.75651173       0.00000000
