10
Lattice="16.28999089631971 0.0 0.0 0.0 16.28999089631971 0.0 0.0 0.0 34.71893929493243" Properties=species:S:1:pos:R:3:initial_magmoms:R:1 pbc="T T T"
Si       0.20077425      -1.87093908       1.42004013       0.00000000
Si      -0.81691744       1.64993265       1.49013771       0.00000000
Si       2.06799921      -0.21874212      -1.25970798       0.00000000
Si      -2.41613999      -1.07574273      -0.47669130       0.00000000
Si      -0.83573564      -2.75677299      -1.30269005       0.00000000
Si       0.70734438      -1.56892248      -2.71335606       0.00000000
Si      -1.07767472       3.10376628      -1.26442976       0.00000000
Si      -2.67194186      -1.03211811       2.06550029       0.00000000
Si      -2.08491542       1.33369488      -2.65912505       0.00000000
Si      -3.17220776       1.40144499       1.10701400       0.00000000
