10
Lattice="16.28999089631971 0.0 0.0 0.0 16.28999089631971 0.0 0.0 0.0 34.71893929493243" Properties=species:S:1:pos:R:3:initial_magmoms:R:1 pbc="T T T"
Si       0.57135546       1.75404204      -1.49669959       0.00000000
Si       1.18846043      -1.99001898      -1.02761174       0.00000000
Si       1.29001717       0.75649131       2.06744455       0.00000000
Si      -2.63011824      -0.83427606      -0.77780883       0.00000000
Si      -2.51745660      -0.66298671       2.14643018       0.00000000
Si      -0.51132681       0.05590728       3.44641011       0.00000000
Si      -1.28927205       2.09974842      -2.95767337       0.00000000
Si       2.21165976       1.00914921      -3.02572253       0.00000000
Si       3.26457206      -0.79107498       2.35877242       0.00000000
Si       2.51954239      -1.32346476      -2.96795018       0.00000000
