10
Lattice="16.28999089631971 0.0 0.0 0.0 16.28999089631971 0.0 0.0 0.0 34.71893929493243" Properties=species:S:1:pos:R:3:initial_magmoms:R:1 pbc="T T T"
Si      -1.35694071       1.35689184       1.35695578       0.00000000
Si       1.35720135      -1.35747828       1.35761544       0.00000000
Si       1.35796698       1.35734796      -1.35723353       0.00000000
Si      -1.35796698      -1.35920502      -1.35817095       0.00000000
Si      -2.71339272       0.00058644       2.71415460       0.00000000
Si      -2.71453302       2.71427238      -0.00020831       0.00000000
Si       0.00184077       2.71448415       2.71443235       0.00000000
Si       2.71474479       2.71464705      -0.00010416       0.00000000
Si       2.71480995       0.00053757       2.71471010       0.00000000
Si      -2.71368594       0.00255753      -2.71655020       0.00000000
