10
Lattice="16.28999089631971 0.0 0.0 0.0 16.28999089631971 0.0 0.0 0.0 34.71893929493243" Properties=species:S:1:pos:R:3:initial_magmoms:R:1 pbc="T T T"
Si      -1.86036687      -0.02870298      -1.39691730       0.00000000
Si      -0.52113339       1.62121338       1.63015927       0.00000000
Si       0.58152042      -2.03149332       1.06733023       0.00000000
Si       1.69857459       0.89129106      -1.47635428       0.00000000
Si      -1.55059623      -2.04905394      -2.49063394       0.00000000
Si       0.45439326      -1.33020882       3.33020780       0.00000000
Si       0.06677271       3.59800488       0.50196670       0.00000000
Si       0.92466927       0.95899230       3.40165942       0.00000000
Si       2.16531567       3.01765734      -0.45901935       0.00000000
Si      -1.57472172       1.50403941      -3.14803742       0.00000000
