10
Lattice="16.28999089631971 0.0 0.0 0.0 16.28999089631971 0.0 0.0 0.0 34.71893929493243" Properties=species:S:1:pos:R:3:initial_magmoms:R:1 pbc="T T T"
Si       2.23614459      -0.37649448       0.57807066       0.00000000
Si       0.01803303      -0.67963509      -2.24392102       0.00000000
Si      -0.79118901       2.20328766       0.13036969       0.00000000
Si      -1.41097464      -1.44601443       1.21377480       0.00000000
Si      -2.85468308       0.15918588      -1.59846086       0.00000000
Si      -2.51713799      -2.27729313      -0.81676350       0.00000000
Si       1.18729665       3.26331054       0.76281024       0.00000000
Si       2.14159743       0.26743293       2.86358499       0.00000000
Si       2.62213614      -2.53415385      -0.36416716       0.00000000
Si      -0.99965866       2.84123664      -2.17382344       0.00000000
