10
Lattice="16.28999089631971 0.0 0.0 0.0 16.28999089631971 0.0 0.0 0.0 34.71893929493243" Properties=species:S:1:pos:R:3:initial_magmoms:R:1 pbc="T T T"
Si      -1.36096434      -1.36014984       1.38388033       0.00000000
Si       1.35580041       1.35790575       1.39162266       0.00000000
Si       1.43192358      -1.32511005      -1.45249541       0.00000000
Si      -1.48108680       1.32606043      -1.42797341       0.00000000
Si       2.69162637      -2.69366553       0.05239785       0.00000000
Si       2.69429271       2.69170163       0.01931416       0.00000000
Si      -2.71632492      -2.72310156      -0.00631191       0.00000000
Si      -2.72751615       2.71250396       0.02765365       0.00000000
Si      -0.00330687       2.71151027       2.74791878       0.00000000
Si       2.71187796      -0.00378720       2.74979361       0.00000000
