10
Lattice="16.28999089631971 0.0 0.0 0.0 16.28999089631971 0.0 0.0 0.0 34.71893929493243" Properties=species:S:1:pos:R:3:initial_magmoms:R:1 pbc="T T T"
Si       1.82127087       0.73410885       1.32206323       0.00000000
Si      -0.76848401      -2.26747026       0.18664912       0.00000000
Si      -1.54286337       1.43049006       1.16020344       0.00000000
Si       0.89660160      -0.29812329      -2.22937378       0.00000000
Si      -1.00430293       0.45638064       3.27243545       0.00000000
Si       1.44554202      -3.22761752       0.04687059       0.00000000
Si       2.48209101      -2.02986432      -1.76601455       0.00000000
Si       2.08415889       3.03759630       0.71232888       0.00000000
Si      -1.96562470      -2.64634308      -1.81295459       0.00000000
Si      -0.69642031      -1.87623333       3.33020780       0.00000000
