10
Lattice="16.28999089631971 0.0 0.0 0.0 16.28999089631971 0.0 0.0 0.0 34.71893929493243" Properties=species:S:1:pos:R:3:initial_magmoms:R:1 pbc="T T T"
Si       1.13992533       0.59328180      -1.91138283       0.00000000
Si      -2.22443208       0.72348777       0.17085200       0.00000000
Si       0.14230944      -2.34559710       0.14075066       0.00000000
Si       0.78258789       0.97534746       1.99880517       0.00000000
Si      -2.57794137      -0.60036795       2.07043038       0.00000000
Si       3.20266680      -0.42446853      -1.69775708       0.00000000
Si       2.20467231       2.62573690      -1.36785753       0.00000000
Si       1.10555343      -2.71210581       2.30290853       0.00000000
Si       0.74054340      -0.73050876       3.61691696       0.00000000
Si      -0.76624902       2.73086442       2.51972843       0.00000000
