10
Lattice="16.28999089631971 0.0 0.0 0.0 16.28999089631971 0.0 0.0 0.0 34.71893929493243" Properties=species:S:1:pos:R:3:initial_magmoms:R:1 pbc="T T T"
Si      -1.80134398      -0.70058403       1.37896556       0.00000000
Si       0.94206047       1.92715587       1.28656105       0.00000000
Si       1.97455488      -1.54756629       0.29132786       0.00000000
Si      -1.29001717      -0.75649131      -2.06744455       0.00000000
Si      -0.34649221      -2.02346235       2.78502436       0.00000000
Si       2.39586315       0.71957817       2.78448275       0.00000000
Si      -0.71866171       0.99755073      -3.56414414       0.00000000
Si       1.07814388      -3.40969411       1.45686796       0.00000000
Si       2.14939545       3.37365900      -0.32430979       0.00000000
Si       0.32161673       3.18594933      -2.46487247       0.00000000
