10
Lattice="16.28999089631971 0.0 0.0 0.0 16.28999089631971 0.0 0.0 0.0 34.71893929493243" Properties=species:S:1:pos:R:3:initial_magmoms:R:1 pbc="T T T"
Si      -1.28402504       1.32361137      -1.50124777       0.00000000
Si      -1.70799998      -0.87509880       1.41445038       0.00000000
Si       1.02421746       1.79605395       1.33688822       0.00000000
Si       1.43799975      -1.39243662      -1.46934105       0.00000000
Si      -2.53030094       2.74048299      -0.03135122       0.00000000
Si      -2.71524068      -2.64517020       0.01975509       0.00000000
Si       2.72287350       2.66315436      -0.09276906       0.00000000
Si      -3.39481061       0.98543097       1.42990031       0.00000000
Si      -2.63892203      -0.03929148      -2.87573663       0.00000000
Si       2.85680988      -2.66828571       0.09967813       0.00000000
