10
Lattice="16.28999089631971 0.0 0.0 0.0 16.28999089631971 0.0 0.0 0.0 34.71893929493243" Properties=species:S:1:pos:R:3:initial_magmoms:R:1 pbc="T T T"
Si       2.04586110      -1.19158092       0.45638071       0.00000000
Si      -0.97451504      -0.44048160      -2.16115102       0.00000000
Si      -0.02143764       2.44029087      -0.21119543       0.00000000
Si      -1.26000706      -0.81010170       2.02862876       0.00000000
Si       1.59894495      -3.38155965      -0.24101901       0.00000000
Si       3.53449017      -0.44786097      -1.16846655       0.00000000
Si      -3.06169640       0.75551391      -2.04046792       0.00000000
Si      -2.18718404       2.86646985      -1.20308136       0.00000000
Si       0.60235533       0.27367200      -3.76506276       0.00000000
Si      -0.65998121      -3.74339313      -0.59966585       0.00000000
