10
Lattice="16.28999089631971 0.0 0.0 0.0 16.28999089631971 0.0 0.0 0.0 34.71893929493243" Properties=species:S:1:pos:R:3:initial_magmoms:R:1 pbc="T T T"
Si      -1.70175114      -0.92927934      -1.19959870       0.00000000
Si      -1.27593054       1.39952277       1.27144993       0.00000000
Si       1.43540964      -1.33380891       1.22423562       0.00000000
Si       0.95936697       1.57762364      -1.39673642       0.00000000
Si      -0.28973394      -1.86163749      -2.83526270       0.00000000
Si       2.63278980       2.55472716      -0.06498347       0.00000000
Si      -2.64509364       0.03130938       2.58847891       0.00000000
Si      -3.29846599       0.85388922      -1.45292193       0.00000000
Si       0.07341903      -2.68597665       2.58389601       0.00000000
Si      -2.59190679       2.69342674      -0.11417330       0.00000000
