10
Lattice="16.28999089631971 0.0 0.0 0.0 16.28999089631971 0.0 0.0 0.0 34.71893929493243" Properties=species:S:1:pos:R:3:initial_magmoms:R:1 pbc="T T T"
Si       1.35990549       1.34628705      -1.36139981       0.00000000
Si      -1.35470898      -1.36757808      -1.36400373       0.00000000
Si       1.29254634      -1.37981187       1.41705430       0.00000000
Si      -1.18148112       1.45123197       1.48822816       0.00000000
Si      -2.12936364      -0.28466775       2.90347708       0.00000000
Si      -0.40610970      -2.24691228       2.84671158       0.00000000
Si       0.63801414       2.21833866       2.94680634       0.00000000
Si       2.46896127       0.25034472       2.84087880       0.00000000
Si      -2.70615507       2.71034064       0.02520596       0.00000000
Si       0.00373041       2.70507735      -2.72158445       0.00000000
