10
Lattice="16.28999089631971 0.0 0.0 0.0 16.28999089631971 0.0 0.0 0.0 34.71893929493243" Properties=species:S:1:pos:R:3:initial_magmoms:R:1 pbc="T T T"
Si       1.69865604       0.86710041      -1.42965728       0.00000000
Si      -1.02421746      -1.79605395      -1.33688822       0.00000000
Si       0.55899135      -0.80555679       2.27985514       0.00000000
Si      -1.72325394       1.96224453       0.05676550       0.00000000
Si       0.40610970       2.24691228      -2.84671158       0.00000000
Si      -2.30824250      -0.47244258      -2.83813600       0.00000000
Si       2.87507097       2.49725700      -0.00583279       0.00000000
Si      -2.73221744      -2.67115275       0.07756215       0.00000000
Si      -1.56279744      -1.90218330       2.94892419       0.00000000
Si      -3.55451840       0.94442904      -1.36823944       0.00000000
