10
Lattice="10.86 0.0 0.0 0.0 10.86 0.0 0.0 0.0 10.86" Properties=species:S:1:pos:R:3:initial_magmoms:R:1 pbc="T T T"
Si      -1.64091342       1.39821414       0.73768722       0.00000000
Si      -1.32130362      -0.97279536      -1.72908576       0.00000000
Si       1.59870060      -1.35175506       1.14037602       0.00000000
Si      -0.03226506      -2.41728396       2.36094228       0.00000000
Si       2.68273494       0.29771604       2.36094228       0.00000000
Si       2.68273494      -2.41728396      -0.35405772       0.00000000
Si      -2.74726506       0.29771604       2.36094228       0.00000000
Si      -2.74726506      -2.41728396      -0.35405772       0.00000000
Si      -0.03226506       3.01271604       2.36094228       0.00000000
Si      -0.03226506      -2.41728396      -3.06905772       0.00000000
