10
Lattice="10.86 0.0 0.0 0.0 10.86 0.0 0.0 0.0 10.86" Properties=species:S:1:pos:R:3:initial_magmoms:R:1 pbc="T T T"
Si       1.19052750      -1.09562196      -1.50669468       0.00000000
Si       1.19052750       1.61937804       1.20830532       0.00000000
Si      -1.52447250       1.61937804      -1.50669468       0.00000000
Si       0.04592694      -2.38556190       2.50047156       0.00000000
Si       2.54802750      -2.45312196      -0.14919468       0.00000000
Si       2.54802750       0.26187804       2.56580532       0.00000000
Si      -0.16697250      -2.45312196      -2.86419468       0.00000000
Si       2.54802750       0.26187804      -2.86419468       0.00000000
Si      -0.22216302       2.80368276       2.67856470       0.00000000
Si       2.54802750       2.97687804      -0.14919468       0.00000000
