10
Lattice="10.86 0.0 0.0 0.0 10.86 0.0 0.0 0.0 10.86" Properties=species:S:1:pos:R:3:initial_magmoms:R:1 pbc="T T T"
Si      -1.10635164       1.61450190      -1.09174494       0.00000000
Si      -1.10635164      -1.10049810       1.62325506       0.00000000
Si       1.64091342      -1.39821414      -0.73768722       0.00000000
Si       1.60864836       1.61450190       1.62325506       0.00000000
Si       0.31960980      -2.37100950      -2.46677298       0.00000000
Si      -2.46385164       0.25700190      -2.44924494       0.00000000
Si      -2.46385164      -2.45799810       0.26575506       0.00000000
Si      -2.46385164       2.97200190       0.26575506       0.00000000
Si       0.25114836      -2.45799810       2.98075506       0.00000000
Si      -2.46385164       0.25700190       2.98075506       0.00000000
