10
Lattice="10.86 0.0 0.0 0.0 10.86 0.0 0.0 0.0 10.86" Properties=species:S:1:pos:R:3:initial_magmoms:R:1 pbc="T T T"
Si       1.47767676       1.17898332       1.20162642       0.00000000
Si      -1.23732324       1.17898332      -1.51337358       0.00000000
Si      -1.23732324      -1.53601668       1.20162642       0.00000000
Si       0.12017676       2.53648332       2.55912642       0.00000000
Si      -2.59482324       2.53648332      -0.15587358       0.00000000
Si      -2.59482324      -0.17851668       2.55912642       0.00000000
Si       2.83517676       2.53648332      -0.15587358       0.00000000
Si       2.83517676      -0.17851668       2.55912642       0.00000000
Si       0.12017676       2.53648332      -2.87087358       0.00000000
Si       0.12017676      -2.89351668       2.55912642       0.00000000
