10
Lattice="16.28999089631971 0.0 0.0 0.0 16.28999089631971 0.0 0.0 0.0 34.24959146834617" Properties=species:S:1:pos:R:3:initial_magmoms:R:1 pbc="T T T"
Si      -0.00901000      -0.39024324       2.26831746       0.00000000
Si       2.27943852       0.30186089      -0.40219318       0.00000000
Si      -0.55400239      -2.11669002      -0.82623761       0.00000000
Si      -1.50468679       1.79104382      -0.25868731       0.00000000
Si       2.16871539       2.27286944      -1.61243742       0.00000000
Si      -2.91978280      -1.89890901      -0.76301283       0.00000000
Si      -0.39908449       3.65217632       0.62841186       0.00000000
Si       0.28317233       2.08669103      -3.09284259       0.00000000
Si       2.16597867      -0.13727583       3.15976633       0.00000000
Si       3.23864259      -1.60785558      -1.38275953       0.00000000
