10
Lattice="16.28999089631971 0.0 0.0 0.0 16.28999089631971 0.0 0.0 0.0 34.24959146834617" Properties=species:S:1:pos:R:3:initial_magmoms:R:1 pbc="T T T"
Si       1.44314739      -1.24714448      -1.35095192       0.00000000
Si       1.37217186       1.34131860       1.37493349       0.00000000
Si      -1.33859817      -1.37494279       1.37702272       0.00000000
Si      -1.42651530       1.35733167      -1.54439372       0.00000000
Si      -2.68723098       2.70368388      -0.00035277       0.00000000
Si      -2.68095933      -2.73431627       0.01985792       0.00000000
Si       2.61625545       0.30737601      -2.78911502       0.00000000
Si      -2.69547372      -0.01620855       2.73854749       0.00000000
Si       0.01881495       2.70050733       2.73834199       0.00000000
Si       2.75134842       2.71564074      -0.00155836       0.00000000
