10
Lattice="16.28999089631971 0.0 0.0 0.0 16.28999089631971 0.0 0.0 0.0 34.24959146834617" Properties=species:S:1:pos:R:3:initial_magmoms:R:1 pbc="T T T"
Si      -1.74838941      -0.93782868       1.26463262       0.00000000
Si      -1.26555381       1.29597571      -1.55431583       0.00000000
Si       0.92419686       1.85208536       1.37279289       0.00000000
Si       1.44011745      -1.40919612      -1.53352632       0.00000000
Si      -0.33003540      -1.45449861       3.18562478       0.00000000
Si      -2.54322738       2.70113645      -0.11066049       0.00000000
Si      -3.37898583       0.96863956       1.33289210       0.00000000
Si      -2.55971286      -2.81818338       0.04253802       0.00000000
Si       2.81616633       2.72446373       0.10196109       0.00000000
Si      -2.62091439      -0.06597101      -2.92495100       0.00000000
