10
Lattice="16.28999089631971 0.0 0.0 0.0 16.28999089631971 0.0 0.0 0.0 34.24959146834617" Properties=species:S:1:pos:R:3:initial_magmoms:R:1 pbc="T T T"
Si       0.83575845       1.73249689      -1.44355259       0.00000000
Si      -1.70895132      -0.89341202      -1.52797788       0.00000000
Si       1.63059642      -1.90646824      -0.06825947       0.00000000
Si       0.07503174       0.79108150       2.44412071       0.00000000
Si      -2.91408552       1.05522385       1.36888844       0.00000000
Si       2.11343202       0.32733615      -2.88720792       0.00000000
Si      -0.28033461      -1.41278350       3.32693868       0.00000000
Si       2.47016673       2.74505071       0.01373409       0.00000000
Si       3.37898583      -0.96863956      -1.33289210       0.00000000
Si      -0.58246524      -2.40614770      -2.89097538       0.00000000
