10
Lattice="16.28999089631971 0.0 0.0 0.0 16.28999089631971 0.0 0.0 0.0 34.24959146834617" Properties=species:S:1:pos:R:3:initial_magmoms:R:1 pbc="T T T"
Si       1.89257220       0.30980322       1.41163195       0.00000000
Si       0.05536971       1.76813289      -1.61935584       0.00000000
Si       0.21836745      -2.39474240      -0.45370459       0.00000000
Si      -1.98659808       0.14928156       1.42355082       0.00000000
Si       0.06069654      -3.03772010       1.90684707       0.00000000
Si      -3.63765474       0.51811974      -0.22296497       0.00000000
Si      -1.17877698       0.81572175      -3.41526842       0.00000000
Si       1.96978680      -1.72755450       2.70626723       0.00000000
Si      -2.99933109      -0.36706257      -2.35147552       0.00000000
Si       3.80747799       0.60626493       0.03596209       0.00000000
