10
Lattice="16.28999089631971 0.0 0.0 0.0 16.28999089631971 0.0 0.0 0.0 34.24959146834617" Properties=species:S:1:pos:R:3:initial_magmoms:R:1 pbc="T T T"
Si      -0.44100288      -2.06042436       0.95885210       0.00000000
Si      -0.16739604       2.09888505       1.06221742       0.00000000
Si       2.37698793       0.19271070      -0.04144203       0.00000000
Si      -0.77296050      -0.23340312      -2.34113213       0.00000000
Si       2.05983792       1.74461013       1.68669057       0.00000000
Si       0.37023912      -3.43779273      -0.67800529       0.00000000
Si      -2.57284260      -1.65739347       1.76721141       0.00000000
Si       2.88437256       0.63592902      -2.35705820       0.00000000
Si       0.00599472       3.72513204      -0.68030002       0.00000000
Si      -1.19702178      -2.72860758      -2.51371592       0.00000000
