10
Lattice="16.28999089631971 0.0 0.0 0.0 16.28999089631971 0.0 0.0 0.0 34.24959146834617" Properties=species:S:1:pos:R:3:initial_magmoms:R:1 pbc="T T T"
Si      -0.81124200       1.37736837       1.63685739       0.00000000
Si      -0.70700229      -2.00943666      -0.83582750       0.00000000
Si       2.17253214       0.62957592      -0.65444156       0.00000000
Si      -1.56726090       0.70918515      -1.83571063       0.00000000
Si       3.06554994      -1.50376248      -0.64889312       0.00000000
Si      -0.37023912       3.43779273       0.67800529       0.00000000
Si       1.38554595      -2.67023562      -1.92054691       0.00000000
Si       0.37194957       0.77998149       3.56456247       0.00000000
Si      -0.59808735      -3.52403362       0.93587061       0.00000000
Si       3.13434261       1.66431672       1.20699053       0.00000000
