10
Lattice="16.28999089631971 0.0 0.0 0.0 16.28999089631971 0.0 0.0 0.0 34.24959146834617" Properties=species:S:1:pos:R:3:initial_magmoms:R:1 pbc="T T T"
Si      -1.37276549       1.68945219       0.85363729       0.00000000
Si       0.03902921      -1.65605443       1.69915743       0.00000000
Si       2.17280907       0.96172902       0.13004577       0.00000000
Si       0.67523679      -0.20085570      -2.29194969       0.00000000
Si      -0.00974468       1.92852423       2.72842673       0.00000000
Si      -0.80282007      -2.13430326      -2.56214487       0.00000000
Si      -0.41717876      -0.21906792       3.53168285       0.00000000
Si       2.36701845       1.87429482       2.35774319       0.00000000
Si       2.20416732      -2.61528524       1.77841103       0.00000000
Si       3.66435405      -0.46499805      -1.21671742       0.00000000
