10
Lattice="16.28999089631971 0.0 0.0 0.0 16.28999089631971 0.0 0.0 0.0 34.24959146834617" Properties=species:S:1:pos:R:3:initial_magmoms:R:1 pbc="T T T"
Si       1.32520779      -1.48416561       1.24630908       0.00000000
Si       1.25170731       1.30212486      -1.52794363       0.00000000
Si      -1.63310508      -1.38722382      -1.41546791       0.00000000
Si      -0.62110512       1.52419014       1.98099748       0.00000000
Si       0.34974630       3.27585384       0.80726332       0.00000000
Si      -0.46307583      -2.19835179       2.68684770       0.00000000
Si       2.45193822       2.64655485       0.00236322       0.00000000
Si      -2.64754854      -1.28726838       2.12313336       0.00000000
Si      -2.95334442       1.18152999       1.93897321       0.00000000
Si       2.52307665      -0.09109368      -2.91683384       0.00000000
