10
Lattice="16.28999089631971 0.0 0.0 0.0 16.28999089631971 0.0 0.0 0.0 34.24959146834617" Properties=species:S:1:pos:R:3:initial_magmoms:R:1 pbc="T T T"
Si      -1.29217167       1.75524750       0.78572032       0.00000000
Si       2.23689393       0.79444701       0.15881544       0.00000000
Si      -0.17339076      -1.62624699       1.74251744       0.00000000
Si      -0.93698451      -0.23599323      -2.36668234       0.00000000
Si       2.05384320      -1.98052191       2.36699059       0.00000000
Si      -3.46757085       0.89640612       1.10674192       0.00000000
Si      -0.52616700       2.34010737       2.92796496       0.00000000
Si      -0.00599472      -3.72513204       0.68030002       0.00000000
Si      -0.78767037       3.67606656      -0.49435888       0.00000000
Si       0.03386691       1.51567047      -3.54041650       0.00000000
