10
Lattice="16.28999089631971 0.0 0.0 0.0 16.28999089631971 0.0 0.0 0.0 34.24959146834617" Properties=species:S:1:pos:R:3:initial_magmoms:R:1 pbc="T T T"
Si      -1.33665966      -1.10477151       1.61925309       0.00000000
Si       2.18447271      -0.91108341       0.56371434       0.00000000
Si      -0.30579588       2.46879837      -0.18416016       0.00000000
Si      -0.80089785      -0.88194060      -2.20978488       0.00000000
Si      -0.70882677      -3.15623637       0.39435002       0.00000000
Si       2.02644342       2.81145852      -0.14213588       0.00000000
Si      -2.64847707       0.68331663      -2.38404690       0.00000000
Si       2.64754854       1.28726838      -2.12313336       0.00000000
Si       1.01444346      -0.09995544      -3.53860127       0.00000000
Si       1.76041143      -3.40628787       0.39113055       0.00000000
