10
Lattice="16.28999089631971 0.0 0.0 0.0 16.28999089631971 0.0 0.0 0.0 34.24959146834617" Properties=species:S:1:pos:R:3:initial_magmoms:R:1 pbc="T T T"
Si      -1.34557029      -1.34324082       1.38358152       0.00000000
Si       1.36865322       1.36966320       1.37549861       0.00000000
Si      -1.41600825       1.33004592      -1.40150777       0.00000000
Si       1.32993189      -1.29645594      -1.54776730       0.00000000
Si       0.32638644       2.47293603      -2.54112383       0.00000000
Si       2.14663104       0.65116017      -2.84358903       0.00000000
Si      -2.71298547      -2.68434765       0.01291895       0.00000000
Si      -2.68859934       2.72552877       0.02282052       0.00000000
Si       2.73860964      -2.69032608      -0.01905991       0.00000000
Si       0.01016496      -2.70164763       2.74137308       0.00000000
