10
Lattice="16.28999089631971 0.0 0.0 0.0 16.28999089631971 0.0 0.0 0.0 34.24959146834617" Properties=species:S:1:pos:R:3:initial_magmoms:R:1 pbc="T T T"
Si      -0.96062130       0.46534570      -2.07765677       0.00000000
Si      -1.74239469      -1.14289011       1.13961606       0.00000000
Si       1.10912094       1.73976453       1.19313450       0.00000000
Si       1.82024460      -1.82177586      -0.30246520       0.00000000
Si       1.20883203      -1.54106658      -2.74771615       0.00000000
Si       1.12917393       0.85457081      -3.14223741       0.00000000
Si       2.42636292       0.26060742       2.53714060       0.00000000
Si      -0.32638644      -2.47293603       2.54112383       0.00000000
Si      -1.22811939      -1.95981732      -2.75281934       0.00000000
Si      -0.33402645       2.98690901       2.54408642       0.00000000
