10
Lattice="16.28999089631971 0.0 0.0 0.0 16.28999089631971 0.0 0.0 0.0 34.24959146834617" Properties=species:S:1:pos:R:3:initial_magmoms:R:1 pbc="T T T"
Si      -2.21515397      -0.30533976       0.62053445       0.00000000
Si       1.61345934      -0.66953529       1.58733245       0.00000000
Si       0.35264592      -1.68464664      -1.62031483       0.00000000
Si       0.37595691       2.31454836      -0.52764950       0.00000000
Si       3.43401345       0.51324903       0.52353955       0.00000000
Si       2.61768897       2.16225315      -1.05660049       0.00000000
Si      -3.22917389       1.40835195      -0.64978361       0.00000000
Si       0.46336905      -3.65565519      -0.41007059       0.00000000
Si       1.65625317      -3.05234038       1.50989408       0.00000000
Si       2.39982651      -1.18348479      -2.70263677       0.00000000
