10
Lattice="16.28999089631971 0.0 0.0 0.0 16.28999089631971 0.0 0.0 0.0 34.24959146834617" Properties=species:S:1:pos:R:3:initial_magmoms:R:1 pbc="T T T"
Si      -1.12534578       1.80388944       0.94785797       0.00000000
Si      -0.76600467      -0.58485987      -2.14224464       0.00000000
Si      -0.66971448      -1.63085706       1.67216874       0.00000000
Si       2.16552744       1.09796229      -0.27433938       0.00000000
Si       0.27365571       2.20012740       2.78586333       0.00000000
Si      -3.16012968       0.97622712       1.59928557       0.00000000
Si      -0.26150337       1.33595919      -3.42232384       0.00000000
Si       1.17893988      -1.78746912       3.07551228       0.00000000
Si      -2.94140385      -1.44370125      -1.82122304       0.00000000
Si       0.52616700      -2.34010737      -2.92796496       0.00000000
