10
Lattice="16.28999089631971 0.0 0.0 0.0 16.28999089631971 0.0 0.0 0.0 34.24959146834617" Properties=species:S:1:pos:R:3:initial_magmoms:R:1 pbc="T T T"
Si      -1.35664749      -1.35546208       1.35669558       0.00000000
Si       1.35747828       1.35864156       1.35638733       0.00000000
Si      -1.35741312       1.35773909      -1.35748332       0.00000000
Si       1.35767376      -1.35717253      -1.35820256       0.00000000
Si      -2.71197549      -0.00283764       2.71390490       0.00000000
Si       0.00244350       2.71051282       2.71606262       0.00000000
Si      -2.71438641       2.71455274      -0.00013700       0.00000000
Si      -2.71463076      -2.71430872       0.00023975       0.00000000
Si       2.71510317      -2.71484629      -0.00037675       0.00000000
Si      -2.71586880       0.00045749      -2.71414464       0.00000000
