10
Lattice="16.28999089631971 0.0 0.0 0.0 16.28999089631971 0.0 0.0 0.0 34.24959146834617" Properties=species:S:1:pos:R:3:initial_magmoms:R:1 pbc="T T T"
Si      -1.61345934       0.66953529      -1.58733245       0.00000000
Si       0.04279383      -2.38280509      -0.07743837       0.00000000
Si      -0.63832365       0.88518231       2.12851055       0.00000000
Si       1.82055411       1.18278432      -1.06379291       0.00000000
Si      -1.26081342      -1.01511135      -3.20764728       0.00000000
Si      -0.52501041       3.18546063       1.68908805       0.00000000
Si      -1.15009029      -2.98611990      -1.99740304       0.00000000
Si       3.05470080       2.13519546       0.73211968       0.00000000
Si       2.99933109       0.36706257       2.35147552       0.00000000
Si      -1.23750243       2.98408365      -2.11498195       0.00000000
