10
Lattice="16.28999089631971 0.0 0.0 0.0 16.28999089631971 0.0 0.0 0.0 34.24959146834617" Properties=species:S:1:pos:R:3:initial_magmoms:R:1 pbc="T T T"
Si      -1.35749457      -1.35687229       1.35631883       0.00000000
Si       1.35728280       1.35777150       1.35618183       0.00000000
Si      -1.35762489       1.35755973      -1.35758607       0.00000000
Si       1.35812988      -1.35823088      -1.35799706       0.00000000
Si       0.00122175       2.71257822       2.71387065       0.00000000
Si      -2.71269225      -0.00034209      -2.71513788       0.00000000
Si       0.00100998      -2.71332733      -2.71458989       0.00000000
Si      -2.71252935      -0.00500103       2.71599412       0.00000000
Si      -2.71435383       2.71423980      -0.00034250       0.00000000
Si       2.71217097       0.00550602       2.71691886       0.00000000
