10
Lattice="16.28999089631971 0.0 0.0 0.0 16.28999089631971 0.0 0.0 0.0 34.24959146834617" Properties=species:S:1:pos:R:3:initial_magmoms:R:1 pbc="T T T"
Si       1.35672894      -1.35668007      -1.35724357       0.00000000
Si       1.35870003       1.35749457       1.35693532       0.00000000
Si      -1.35767376       1.35785295      -1.35762031       0.00000000
Si      -1.35783666      -1.35782037       1.35772306       0.00000000
Si       2.71435383      -2.71423980       0.00034250       0.00000000
Si       2.71448415       0.00307881      -2.71448714       0.00000000
Si      -2.71516833       0.00250866      -2.71400764       0.00000000
Si       0.00166158      -2.71458189      -2.71479538       0.00000000
Si       0.00143352       2.71503801      -2.71448714       0.00000000
Si       2.71557558      -0.00166158       2.71421314       0.00000000
