10
Lattice="16.28999089631971 0.0 0.0 0.0 16.28999089631971 0.0 0.0 0.0 34.24959146834617" Properties=species:S:1:pos:R:3:initial_magmoms:R:1 pbc="T T T"
Si       1.35606105      -1.35480672      -1.35768881       0.00000000
Si       1.36251189       1.33910316       1.36734720       0.00000000
Si      -1.35687555       1.35915615      -1.35727782       0.00000000
Si      -1.34399016      -1.35698958       1.38258828       0.00000000
Si       2.71094922      -2.70707220       0.00304822       0.00000000
Si      -0.00122175      -2.71257822      -2.71387065       0.00000000
Si       2.71373481       0.00198738      -2.71400764       0.00000000
Si       2.71510317       2.71443528       0.00438395       0.00000000
Si      -2.71557558       0.00166158      -2.71421314       0.00000000
Si      -0.00096111       2.71687878      -2.71417889       0.00000000
