10
Lattice="16.28999089631971 0.0 0.0 0.0 16.28999089631971 0.0 0.0 0.0 34.24959146834617" Properties=species:S:1:pos:R:3:initial_magmoms:R:1 pbc="T T T"
Si       1.29497355      -1.34407161      -1.39885685       0.00000000
Si      -1.30100085      -1.39949019       1.45937591       0.00000000
Si      -1.41131673       1.38535047      -1.39755536       0.00000000
Si       1.77777657       0.98065800       1.40642601       0.00000000
Si       2.53605978      -2.66623317       0.20899112       0.00000000
Si      -2.60918559      -0.00772146       2.76558756       0.00000000
Si       2.62762587       2.75144616       0.07267767       0.00000000
Si       2.64756483       0.03126051      -2.76182010       0.00000000
Si      -2.76703569      -2.67330303       0.00842540       0.00000000
Si      -0.06753834      -2.68317477      -2.76620405       0.00000000
