10
Lattice="16.28999089631971 0.0 0.0 0.0 16.28999089631971 0.0 0.0 0.0 34.24959146834617" Properties=species:S:1:pos:R:3:initial_magmoms:R:1 pbc="T T T"
Si      -2.09670219       1.03495257      -0.07038295       0.00000000
Si       1.44231660       1.06815159      -1.53698553       0.00000000
Si       0.64611027       0.50283972       2.24016428       0.00000000
Si       0.11500740      -2.40513705      -0.16289115       0.00000000
Si       3.04277652      -0.00009774       1.51338754       0.00000000
Si       3.13660692       1.66073292      -0.07699312       0.00000000
Si      -3.67890102      -0.60370740       0.49473563       0.00000000
Si       2.17526886      -2.86922286      -1.18770800       0.00000000
Si      -2.48345937       1.88801100      -2.19543429       0.00000000
Si      -1.49638311       0.16151535       3.51065359       0.00000000
