10
Lattice="16.28999089631971 0.0 0.0 0.0 16.28999089631971 0.0 0.0 0.0 34.24959146834617" Properties=species:S:1:pos:R:3:initial_magmoms:R:1 pbc="T T T"
Si       1.12783815      -1.20609531       1.69001279       0.00000000
Si      -0.83465073       2.12959170       0.61371877       0.00000000
Si      -1.43659881      -1.67249430      -0.90949841       0.00000000
Si       2.14249338       0.34132437      -1.27048931       0.00000000
Si       2.73921237      -1.61109729      -0.01534383       0.00000000
Si       0.64252647       3.56112432      -0.55648767       0.00000000
Si      -0.12569364      -3.67696251      -0.55193247       0.00000000
Si      -0.63656433       2.17306971       2.96341331       0.00000000
Si      -0.60031908       0.87343722      -3.58103654       0.00000000
Si      -2.18251791      -0.76522275      -3.01591796       0.00000000
