10
Lattice="16.28999089631971 0.0 0.0 0.0 16.28999089631971 0.0 0.0 0.0 34.24959146834617" Properties=species:S:1:pos:R:3:initial_magmoms:R:1 pbc="T T T"
Si       1.34684091       1.34190504       1.37162841       0.00000000
Si       1.35428544      -1.35536058      -1.35631883       0.00000000
Si      -1.35871632       1.35711990      -1.35652433       0.00000000
Si      -1.34438112      -1.36213722       1.36840894       0.00000000
Si      -2.61575046       0.03108132       2.75729915       0.00000000
Si       2.71360449       0.00109143      -2.71448714       0.00000000
Si      -0.00156384      -2.71378368      -2.71441864       0.00000000
Si       2.71375110       2.71604799       0.00424695       0.00000000
Si      -2.71743264      -2.71252935       0.00465795       0.00000000
Si       2.71450044      -2.71622718       0.00414420       0.00000000
