10
Lattice="16.28999089631971 0.0 0.0 0.0 16.28999089631971 0.0 0.0 0.0 34.24959146834617" Properties=species:S:1:pos:R:3:initial_magmoms:R:1 pbc="T T T"
Si      -0.38675718       0.85305843      -2.12505134       0.00000000
Si       2.09670219      -1.03495257       0.07038295       0.00000000
Si      -1.58219883      -1.63865997       0.56511858       0.00000000
Si       0.16013070       2.20550310       0.97419592       0.00000000
Si       2.74281246      -0.53211285       2.31054723       0.00000000
Si       0.60031908      -0.87343722       3.58103654       0.00000000
Si      -3.68118162      -0.43950420       0.63193957       0.00000000
Si      -0.83627973      -2.54593152       2.67153813       0.00000000
Si       0.97933851       2.60685612      -2.59022955       0.00000000
Si       3.53901879       0.03319902      -1.46660258       0.00000000
