10
Lattice="16.28999089631971 0.0 0.0 0.0 16.28999089631971 0.0 0.0 0.0 34.24959146834617" Properties=species:S:1:pos:R:3:initial_magmoms:R:1 pbc="T T T"
Si      -2.10419559      -0.00765630      -1.10177572       0.00000000
Si       1.41095835       1.69468128      -0.97861412       0.00000000
Si       0.81153522      -2.27607138      -0.52484103       0.00000000
Si      -0.23392440       0.38667573       2.52022335       0.00000000
Si       1.47481515      -1.29969765       2.72831512       0.00000000
Si      -2.32525089       2.37128643      -0.79185100       0.00000000
Si      -0.28896831       3.29437557      -1.40320655       0.00000000
Si       2.62492173       1.01586069      -2.88700243       0.00000000
Si      -3.74541309      -1.55211120       0.01657681       0.00000000
Si      -2.30228199      -0.05113431      -3.45147026       0.00000000
