10
Lattice="16.28999089631971 0.0 0.0 0.0 16.28999089631971 0.0 0.0 0.0 34.24959146834617" Properties=species:S:1:pos:R:3:initial_magmoms:R:1 pbc="T T T"
Si       1.35055503       1.34628705       1.38059495       0.00000000
Si      -1.36645081      -1.36506942       1.37888247       0.00000000
Si      -1.32074433       1.35480672      -1.44745019       0.00000000
Si       1.26071568      -1.34635221      -1.54404095       0.00000000
Si      -2.02823369      -0.62744193      -2.76115707       0.00000000
Si      -0.34220403      -2.51309088      -2.84116416       0.00000000
Si       2.68723098      -2.70368388       0.00035277       0.00000000
Si       2.71171485       2.69389359       0.01093248       0.00000000
Si      -2.72643191       2.70956457      -0.00743902       0.00000000
Si       2.70604593      -0.00317655       2.73869476       0.00000000
