10
Lattice="16.28999089631971 0.0 0.0 0.0 16.28999089631971 0.0 0.0 0.0 34.24959146834617" Properties=species:S:1:pos:R:3:initial_magmoms:R:1 pbc="T T T"
Si       1.32074433      -1.35480672       1.44745019       0.00000000
Si      -1.40568758       1.35475785       1.44001118       0.00000000
Si      -0.70748936      -1.98224865      -1.31370687       0.00000000
Si       1.34128602       1.55922993      -1.43515599       0.00000000
Si       2.58146001      -2.70115893      -0.09659075       0.00000000
Si      -2.66400863      -2.68807806       0.05129222       0.00000000
Si       2.70374904       2.74103685       0.12920666       0.00000000
Si      -1.00555889      -0.27596889      -3.72515346       0.00000000
Si       2.67129936      -0.00851967       2.82804515       0.00000000
Si      -2.67197444       2.83789719       0.00839115       0.00000000
