10
Lattice="16.28999089631971 0.0 0.0 0.0 16.28999089631971 0.0 0.0 0.0 34.24959146834617" Properties=species:S:1:pos:R:3:initial_magmoms:R:1 pbc="T T T"
Si       1.35627282      -1.35671265       1.35724357       0.00000000
Si      -1.35774087       1.35770634       1.35731207       0.00000000
Si       1.35840681       1.35835794      -1.35731207       0.00000000
Si      -1.35826739      -1.35773892      -1.35844231       0.00000000
Si       0.00008797      -2.71394658       2.71383640       0.00000000
Si       2.71425609       0.00006516       2.71496663       0.00000000
Si      -2.71515923      -0.00047241       2.71424739       0.00000000
Si       2.71487511       2.71503801       0.00030825       0.00000000
Si       2.71502172      -2.71508688      -0.00078774       0.00000000
Si      -0.00122175       2.71538010       2.71486388       0.00000000
