10
Lattice="16.28999089631971 0.0 0.0 0.0 16.28999089631971 0.0 0.0 0.0 34.24959146834617" Properties=species:S:1:pos:R:3:initial_magmoms:R:1 pbc="T T T"
Si       2.21515397       0.30533976      -0.62053445       0.00000000
Si      -1.10560230      -1.86113250      -0.88709916       0.00000000
Si      -1.01401992       1.71369171      -1.27031806       0.00000000
Si      -0.52932726       0.07618833       2.30506729       0.00000000
Si      -2.95609743      -1.49424912       0.49257790       0.00000000
Si      -1.05538023       2.30244489       2.45740956       0.00000000
Si       2.56779989      -1.37930688      -2.24084927       0.00000000
Si       0.39908449      -3.65217632      -0.62841186       0.00000000
Si      -1.64771721      -1.30000716      -3.10537794       0.00000000
Si       2.59111088       2.61988812      -1.14818395       0.00000000
