10
Lattice="16.28999089631971 0.0 0.0 0.0 16.28999089631971 0.0 0.0 0.0 34.24959146834617" Properties=species:S:1:pos:R:3:initial_magmoms:R:1 pbc="T T T"
Si      -1.35767376      -1.35679410       1.35631883       0.00000000
Si       1.35817875       1.35669636       1.35676407       0.00000000
Si      -1.35734796       1.35738054      -1.35724357       0.00000000
Si       1.35816246      -1.35795069      -1.35738057       0.00000000
Si      -0.00278559      -2.70905958       2.71705586       0.00000000
Si      -2.71373481      -0.00198738       2.71400764       0.00000000
Si       0.00208512      -2.71469592      -2.71404189       0.00000000
Si      -2.71482624       0.00275301      -2.71469264       0.00000000
Si      -2.71495656      -2.71456560       0.00013700       0.00000000
Si      -2.71469592       2.71489140      -0.00017125       0.00000000
