10
Lattice="16.28999089631971 0.0 0.0 0.0 16.28999089631971 0.0 0.0 0.0 34.24959146834617" Properties=species:S:1:pos:R:3:initial_magmoms:R:1 pbc="T T T"
Si       1.23325074      -1.41082803       1.39077394       0.00000000
Si      -1.33682256      -1.36767582      -1.37460812       0.00000000
Si       1.38191045       1.34332227      -1.37563561       0.00000000
Si      -1.44417366       1.35633798       1.59753884       0.00000000
Si      -2.68525989       2.67849954      -0.01030913       0.00000000
Si       2.74070358       2.67670764      -0.00839115       0.00000000
Si      -2.70166392      -2.71960573       0.01099413       0.00000000
Si       2.51927686       0.02489112       2.89179737       0.00000000
Si      -2.69171073      -0.01541034      -2.73534515       0.00000000
Si       0.02414178       2.69808012      -2.73489991       0.00000000
