10
Lattice="16.28999089631971 0.0 0.0 0.0 16.28999089631971 0.0 0.0 0.0 34.24959146834617" Properties=species:S:1:pos:R:3:initial_magmoms:R:1 pbc="T T T"
Si      -1.37464794       1.41814224       1.25076153       0.00000000
Si       1.56576222      -1.20603015       1.33268660       0.00000000
Si      -1.57550364      -1.43084844      -1.10335121       0.00000000
Si       1.50232896       1.94398344      -0.62457590       0.00000000
Si      -0.64169568      -2.51923221       1.60003906       0.00000000
Si       1.10685663      -1.12697478      -2.81579749       0.00000000
Si      -1.30279275      -0.30734343      -3.07996473       0.00000000
Si       0.31964238       2.01072357       2.71075393       0.00000000
Si       2.29590675       2.11291074       1.58332525       0.00000000
Si       2.43190056       0.75989592      -2.42007749       0.00000000
