10
Lattice="16.28999089631971 0.0 0.0 0.0 16.28999089631971 0.0 0.0 0.0 34.24959146834617" Properties=species:S:1:pos:R:3:initial_magmoms:R:1 pbc="T T T"
Si       1.35694071      -1.35668007      -1.35703807       0.00000000
Si      -1.35734796       1.35803214      -1.35724357       0.00000000
Si       1.35814617       1.35741312       1.35738057       0.00000000
Si      -1.35931905      -1.35645201       1.35816831       0.00000000
Si       2.71301805       0.00187335       2.71397339       0.00000000
Si       0.00109143       2.71463076      -2.71318565       0.00000000
Si      -2.71360449      -0.00109143       2.71448714       0.00000000
Si       2.71434473       0.00156384      -2.71407614       0.00000000
Si      -2.71523349       0.00138465      -2.71424739       0.00000000
Si       2.71512469      -2.71489140       0.00006850       0.00000000
