10
Lattice="16.28999089631971 0.0 0.0 0.0 16.28999089631971 0.0 0.0 0.0 34.24959146834617" Properties=species:S:1:pos:R:3:initial_magmoms:R:1 pbc="T T T"
Si      -2.07692613       0.96492186       0.56138537       0.00000000
Si       0.48275415      -1.60873524       1.68501234       0.00000000
Si       0.83693133       2.17707705       0.51802536       0.00000000
Si       0.56185839      -0.92556522      -2.15813646       0.00000000
Si       3.35973105      -1.08289404      -0.19032509       0.00000000
Si       1.85740209      -3.02687748       0.43425081       0.00000000
Si       0.54898929       2.15783856       2.86559642       0.00000000
Si      -3.44302182      -0.78887583       1.02656358       0.00000000
Si      -1.74060279       1.93681584       2.66664043       0.00000000
Si       2.33950464       0.38187018      -3.07171058       0.00000000
