10
Lattice="16.28999089631971 0.0 0.0 0.0 16.28999089631971 0.0 0.0 0.0 34.24959146834617" Properties=species:S:1:pos:R:3:initial_magmoms:R:1 pbc="T T T"
Si      -1.60681302       0.56008278      -1.56541270       0.00000000
Si       1.77764625       1.30743540      -0.91357411       0.00000000
Si      -0.56185839       0.92556522       2.15813646       0.00000000
Si      -0.00724905      -2.40865569      -0.48757746       0.00000000
Si       2.79787266      -0.15732882       1.96781138       0.00000000
Si      -3.18034557      -0.97199172      -0.85904873       0.00000000
Si       1.29554370      -2.10131226       2.59238728       0.00000000
Si      -0.66243285      -0.13875822      -3.64282283       0.00000000
Si       3.17906259      -0.36269685      -1.91308050       0.00000000
Si       3.22147197       1.89802935       0.83147780       0.00000000
