10
Lattice="16.28999089631971 0.0 0.0 0.0 16.28999089631971 0.0 0.0 0.0 34.24959146834617" Properties=species:S:1:pos:R:3:initial_magmoms:R:1 pbc="T T T"
Si      -1.33413471       1.33732755      -1.41252244       0.00000000
Si      -1.87424595      -0.67644225       1.27220179       0.00000000
Si       1.34698493      -1.38725640      -1.37786183       0.00000000
Si       1.48121779       1.48408416       1.16496626       0.00000000
Si       2.21559380      -0.28564515       2.35281125       0.00000000
Si      -2.60429859       2.76383277      -0.08021259       0.00000000
Si       2.62067723      -2.82525615       0.02291299       0.00000000
Si       0.00421911       2.69306810      -2.75699091       0.00000000
Si      -2.73245202      -2.72940579       0.08147982       0.00000000
Si      -2.71326240      -0.01731627      -2.75291520       0.00000000
