10
Lattice="16.28999089631971 0.0 0.0 0.0 16.28999089631971 0.0 0.0 0.0 34.24959146834617" Properties=species:S:1:pos:R:3:initial_magmoms:R:1 pbc="T T T"
Si       2.17605078       0.61082613      -0.55313121       0.00000000
Si      -0.28794204      -0.01923849       2.34757106       0.00000000
Si      -0.83693133      -2.17707705      -0.51802536       0.00000000
Si      -1.28454795       1.68505389      -1.15116366       0.00000000
Si      -2.91385746      -1.21215519       0.04336001       0.00000000
Si      -2.57753412      -0.24026121       2.14861507       0.00000000
Si       2.94639903      -1.20461292      -1.84468403       0.00000000
Si      -1.13114502       0.93963978      -3.45407323       0.00000000
Si       2.14485543       2.89116549      -1.25562497       0.00000000
Si       3.52042280       0.77493159       1.31268483       0.00000000
