10
Lattice="16.28999089631971 0.0 0.0 0.0 16.28999089631971 0.0 0.0 0.0 34.24959146834617" Properties=species:S:1:pos:R:3:initial_magmoms:R:1 pbc="T T T"
Si      -0.42453369       0.08319303      -2.31592442       0.00000000
Si       0.30749004      -2.29436505       0.55635067       0.00000000
Si      -2.32622829       0.44048160       0.69201338       0.00000000
Si       1.58887824       1.88198370       0.71718685       0.00000000
Si       1.75131576      -1.70377110       2.30140258       0.00000000
Si       0.98096751       0.11166795       3.59295540       0.00000000
Si      -2.79930618       2.45741166      -0.37743071       0.00000000
Si      -2.16024948       1.78896780      -2.51601064       0.00000000
Si       0.94977216       2.39200731       2.89046164       0.00000000
Si       3.66530606       0.47399013      -1.23531496       0.00000000
