10
Lattice="16.28999089631971 0.0 0.0 0.0 16.28999089631971 0.0 0.0 0.0 34.24959146834617" Properties=species:S:1:pos:R:3:initial_magmoms:R:1 pbc="T T T"
Si      -1.13562870       1.70696394       1.09345307       0.00000000
Si      -0.40743408      -2.14759215       0.80325612       0.00000000
Si      -1.36302081      -0.23907204      -1.87478944       0.00000000
Si       2.37676313      -0.05422941      -0.37068354       0.00000000
Si       0.00974468      -1.92852423      -2.72842673       0.00000000
Si       1.47810899      -1.96141374       2.28366129       0.00000000
Si       0.75429542       3.05740494       1.38481451       0.00000000
Si       2.18255375      -0.96679521      -2.59838096       0.00000000
Si      -2.73740811      -1.88211402       1.41913262       0.00000000
Si      -3.34308660       0.39376188       1.36080553       0.00000000
