10
Lattice="16.28999089631971 0.0 0.0 0.0 16.28999089631971 0.0 0.0 0.0 34.24959146834617" Properties=species:S:1:pos:R:3:initial_magmoms:R:1 pbc="T T T"
Si       1.40111919      -1.34627076      -1.32855267       0.00000000
Si       1.36741518       1.34110683       1.37066257       0.00000000
Si      -1.34795352      -1.37700999       1.36573062       0.00000000
Si      -1.39708253       1.36270737      -1.45469741       0.00000000
Si      -2.70701562       2.68291413       0.01186064       0.00000000
Si       2.71298547       2.68434765      -0.01291895       0.00000000
Si       0.00928530       2.69610903       2.72728964       0.00000000
Si       0.03865617      -2.52807768      -2.89291532       0.00000000
Si      -2.70653463      -0.01614339       2.72828288       0.00000000
Si      -2.70831743      -2.73254976      -0.01774815       0.00000000
