10
Lattice="16.28999089631971 0.0 0.0 0.0 16.28999089631971 0.0 0.0 0.0 34.24959146834617" Properties=species:S:1:pos:R:3:initial_magmoms:R:1 pbc="T T T"
Si      -1.71718496      -0.82596816      -1.37758784       0.00000000
Si       0.92118321       1.78310340      -1.24425410       0.00000000
Si      -1.44029990      -0.11577303       1.87780340       0.00000000
Si       1.84757922      -1.56525723       0.17426202       0.00000000
Si      -1.63770798      -2.74014090       1.34035851       0.00000000
Si      -0.33863489      -2.21835591      -2.65530381       0.00000000
Si       2.37457701       0.52675344      -2.65475582       0.00000000
Si       2.64847707      -0.68331663       2.38404690       0.00000000
Si       2.34268119       1.78548174       2.19988674       0.00000000
Si      -3.37055480      -1.75114242       0.03784582       0.00000000
