10
Lattice="16.28999089631971 0.0 0.0 0.0 16.28999089631971 0.0 0.0 0.0 34.24959146834617" Properties=species:S:1:pos:R:3:initial_magmoms:R:1 pbc="T T T"
Si      -0.05212800       2.25621387      -0.61680124       0.00000000
Si       1.38510612       0.36851238       1.88167361       0.00000000
Si      -2.15711854      -0.74707569       0.78870003       0.00000000
Si       1.58345316      -1.10654712      -1.63377493       0.00000000
Si      -0.24312825       1.43068554      -2.74801751       0.00000000
Si      -2.92746680       1.06836336       2.08025285       0.00000000
Si      -2.31955607       2.83867911      -0.79551571       0.00000000
Si       1.28342394      -1.68725304       3.12945542       0.00000000
Si       0.42683058       2.12706675       3.15640986       0.00000000
Si      -3.60094427      -1.33766964      -0.95635188       0.00000000
