10
Lattice="16.28999089631971 0.0 0.0 0.0 16.28999089631971 0.0 0.0 0.0 34.24959146834617" Properties=species:S:1:pos:R:3:initial_magmoms:R:1 pbc="T T T"
Si       1.98325863      -0.24542514       1.24452810       0.00000000
Si      -1.73672577       0.87250869       1.39625388       0.00000000
Si       0.10168218       2.05576542      -1.24778181       0.00000000
Si      -0.28450485      -2.38788594      -0.65286608       0.00000000
Si      -3.07056400      -0.94625352       1.00347934       0.00000000
Si       3.39586227      -0.46688769      -0.61200629       0.00000000
Si      -1.91078442      -2.91475341       1.04420213       0.00000000
Si       2.37337155       1.86860961       2.24560997       0.00000000
Si      -1.28342394       1.68725304      -3.12945542       0.00000000
Si      -0.85659336       3.81431979       0.02695444       0.00000000
