10
Lattice="16.28999089631971 0.0 0.0 0.0 16.28999089631971 0.0 0.0 0.0 34.24959146834617" Properties=species:S:1:pos:R:3:initial_magmoms:R:1 pbc="T T T"
Si      -1.34193623       1.33869591      -1.37072764       0.00000000
Si      -1.35786785      -1.34208423       1.36102815       0.00000000
Si       1.35825412       1.37270943       1.35431523       0.00000000
Si       1.30993309      -1.32020676      -1.46655805       0.00000000
Si       0.44061235       2.26066104      -2.64498132       0.00000000
Si       2.22940911       0.47770425      -2.88624692       0.00000000
Si       2.70701562      -2.68291413      -0.01186064       0.00000000
Si      -2.69900726      -2.69439858      -0.01166542       0.00000000
Si       0.00048099      -2.69905752       2.71642224       0.00000000
Si      -2.71277231       0.01400940       2.71731273       0.00000000
