10
Lattice="16.28999089631971 0.0 0.0 0.0 16.28999089631971 0.0 0.0 0.0 34.24959146834617" Properties=species:S:1:pos:R:3:initial_magmoms:R:1 pbc="T T T"
Si      -1.35871364       1.35723961       1.36224401       0.00000000
Si       1.35804680      -1.35951453       1.36111378       0.00000000
Si       1.37314763       1.35425286      -1.35627431       0.00000000
Si      -1.35825412      -1.37270943      -1.35431523       0.00000000
Si       0.02284998       2.64794180      -2.76343326       0.00000000
Si      -2.70019035      -0.03401352      -2.72504287       0.00000000
Si       2.64573872      -0.04122999      -2.78060259       0.00000000
Si       2.71550879       2.71362634       0.00089049       0.00000000
Si      -2.71418346       2.71566259       0.00541144       0.00000000
Si       2.71617668      -2.71451673       0.00448670       0.00000000
