10
Lattice="16.28999089631971 0.0 0.0 0.0 16.28999089631971 0.0 0.0 0.0 34.24959146834617" Properties=species:S:1:pos:R:3:initial_magmoms:R:1 pbc="T T T"
Si       0.73437601      -1.76972931       1.18784500       0.00000000
Si      -1.19722703       1.36733717       1.43413395       0.00000000
Si       1.48596403       1.35214886      -1.19253719       0.00000000
Si      -1.48121779      -1.48408416      -1.16496626       0.00000000
Si      -1.34205181      -0.36173574       3.14034680       0.00000000
Si       0.92537626      -0.94420098       3.31906126       0.00000000
Si      -0.11665595       2.57951891      -2.54053337       0.00000000
Si       2.61245011      -0.16058682      -2.55553470       0.00000000
Si       0.28082983       3.30078473       1.70432912       0.00000000
Si      -2.81535250      -0.14675661      -2.57748870       0.00000000
