10
Lattice="10.86 0.0 0.0 0.0 10.86 0.0 0.0 0.0 10.86" Properties=species:S:1:pos:R:3:initial_magmoms:R:1 pbc="T T T"
Si       1.45418658      -1.13594514       1.47318072       0.00000000
Si       1.45418658       1.57905486      -1.24181928       0.00000000
Si      -1.26081342       1.57905486       1.47318072       0.00000000
Si      -2.25642564       0.13980078      -2.30183130       0.00000000
Si      -0.09060498      -2.41630656      -2.52506946       0.00000000
Si       2.81168658      -2.49344514       0.11568072       0.00000000
Si       0.09668658      -2.49344514       2.83068072       0.00000000
Si      -2.64607158      -2.70479160       0.19329714       0.00000000
Si       2.81168658       0.22155486      -2.59931928       0.00000000
Si      -2.61831342       0.22155486       2.83068072       0.00000000
