10
Lattice="16.28999089631971 0.0 0.0 0.0 16.28999089631971 0.0 0.0 0.0 34.397273925272025" Properties=species:S:1:pos:R:3:initial_magmoms:R:1 pbc="T T T"
Si      -2.11916514      -0.10568952       1.00247471       0.00000000
Si      -0.15496840       0.68989779      -2.27555293       0.00000000
Si       0.33495172      -2.37443040      -0.18182409       0.00000000
Si       0.92297511       1.35021294       1.81734659       0.00000000
Si      -1.73231022      -0.82570752      -3.11914654       0.00000000
Si       2.60903083      -2.81105127      -0.57137344       0.00000000
Si       0.79650769      -3.30256944       1.92428777       0.00000000
Si       2.09917013      -0.14300991       3.31335366       0.00000000
Si      -0.88922127       3.80597346      -0.45610811       0.00000000
Si      -3.32959359       1.97429913       0.76723162       0.00000000
