10
Lattice="16.28999089631971 0.0 0.0 0.0 16.28999089631971 0.0 0.0 0.0 34.397273925272025" Properties=species:S:1:pos:R:3:initial_magmoms:R:1 pbc="T T T"
Si       1.33081155      -1.24369819       1.50315139       0.00000000
Si       1.33550307       1.43285374      -1.32332376       0.00000000
Si      -0.89215443      -1.73459734      -1.40116483       0.00000000
Si      -1.37529954       1.45342801       1.48287763       0.00000000
Si       2.67805971      -2.56952500       0.10788023       0.00000000
Si      -2.68121997      -2.58602677       0.01681340       0.00000000
Si      -0.03525156      -2.59814653       2.86377072       0.00000000
Si       2.70347211       2.83763818       0.11189783       0.00000000
Si       2.67776649       0.11663640       2.86325476       0.00000000
Si      -2.61392598       2.94036292       0.12385433       0.00000000
