10
Lattice="16.28999089631971 0.0 0.0 0.0 16.28999089631971 0.0 0.0 0.0 34.397273925272025" Properties=species:S:1:pos:R:3:initial_magmoms:R:1 pbc="T T T"
Si       1.35702216       1.35791811       1.35659484       0.00000000
Si       1.35749457      -1.35733819      -1.35724839       0.00000000
Si      -1.35814617      -1.35670288       1.35728279       0.00000000
Si      -1.35826020       1.35791811      -1.35728279       0.00000000
Si       2.70806589       0.00355122       2.71556310       0.00000000
Si      -2.71342530       0.00027693       2.71494395       0.00000000
Si       2.71422351       2.71479366      -0.00013759       0.00000000
Si       2.71466334      -2.71484884       0.00041277       0.00000000
Si      -2.71450044       2.71511946      -0.00055036       0.00000000
Si      -2.71575477       0.00063531      -2.71387763       0.00000000
