10
Lattice="16.28999089631971 0.0 0.0 0.0 16.28999089631971 0.0 0.0 0.0 34.397273925272025" Properties=species:S:1:pos:R:3:initial_magmoms:R:1 pbc="T T T"
Si      -1.35527913       1.35697981       1.35766116       0.00000000
Si       1.35814617       1.35670288      -1.35728279       0.00000000
Si      -1.35632169      -1.35886076      -1.35704201       0.00000000
Si       1.36080144      -1.36250018       1.35972500       0.00000000
Si      -0.00011403       2.71462099      -2.71456558       0.00000000
Si       2.71432125      -2.71507126       0.00010319       0.00000000
Si      -2.71352467       2.71613596       0.00089433       0.00000000
Si       2.71516833       2.71462099      -0.00068795       0.00000000
Si      -2.71552508      -0.00032417      -2.71432480       0.00000000
Si       2.71564074      -0.00063531      -2.71453118       0.00000000
