10
Lattice="16.28999089631971 0.0 0.0 0.0 16.28999089631971 0.0 0.0 0.0 34.397273925272025" Properties=species:S:1:pos:R:3:initial_magmoms:R:1 pbc="T T T"
Si      -2.19325302      -0.81675454       0.12228238       0.00000000
Si      -0.23328909       2.27214549      -0.57433160       0.00000000
Si       1.21484304      -1.16824550      -1.67167405       0.00000000
Si       0.54892413       0.68505966       2.26145004       0.00000000
Si       2.83965651       0.52771455      -1.82701223       0.00000000
Si      -1.61810199       1.43716896       2.82257308       0.00000000
Si       1.91575287       2.69265555      -1.40289360       0.00000000
Si      -3.36893490       0.44605278      -1.44179694       0.00000000
Si      -2.87337681      -0.45243846       2.31682968       0.00000000
Si      -1.40937822       3.19391514       1.28714671       0.00000000
