10
Lattice="16.28999089631971 0.0 0.0 0.0 16.28999089631971 0.0 0.0 0.0 34.397273925272025" Properties=species:S:1:pos:R:3:initial_magmoms:R:1 pbc="T T T"
Si       0.54859833       2.16806868      -0.76695645       0.00000000
Si       2.00075409      -1.34431922      -0.14161366       0.00000000
Si      -1.23140997       0.32391036       2.05327762       0.00000000
Si      -0.69255306      -0.49642146      -2.75529198       0.00000000
Si      -0.77592528      -3.16837961      -1.15626501       0.00000000
Si       0.75202785       3.28644234       1.22247980       0.00000000
Si      -1.32761871       2.71324611       2.00945547       0.00000000
Si       3.08161188      -0.20917989      -1.98809475       0.00000000
Si      -0.05572809      -0.93889696       3.61735694       0.00000000
Si       2.72025081       2.19664134      -1.58189711       0.00000000
