10
Lattice="16.28999089631971 0.0 0.0 0.0 16.28999089631971 0.0 0.0 0.0 34.397273925272025" Properties=species:S:1:pos:R:3:initial_magmoms:R:1 pbc="T T T"
Si       0.02150280      -0.63929048       2.27744478       0.00000000
Si      -0.55772073       2.20473894      -1.02906382       0.00000000
Si       0.40342185      -1.52795885      -1.96480778       0.00000000
Si       2.52301149      -0.76729730      -1.11134214       0.00000000
Si       2.99436264       1.54698132      -1.18921762       0.00000000
Si      -2.52016074       1.61838039      -2.25615285       0.00000000
Si       1.27215126       2.47121076      -2.54079046       0.00000000
Si       0.91365723       1.09530686       3.67860961       0.00000000
Si       2.03465358      -2.59374839       2.46965219       0.00000000
Si       2.24916030       2.52816060       2.35528585       0.00000000
