10
Lattice="16.28999089631971 0.0 0.0 0.0 16.28999089631971 0.0 0.0 0.0 34.397273925272025" Properties=species:S:1:pos:R:3:initial_magmoms:R:1 pbc="T T T"
Si      -1.34866539       1.34829072       1.35769556       0.00000000
Si      -1.35555606      -1.35842310      -1.35466860       0.00000000
Si       1.35853713       1.35553977      -1.35477179       0.00000000
Si       1.35767376      -1.35677781       1.35965620       0.00000000
Si      -2.70108562      -0.00793323       2.71160741       0.00000000
Si      -2.71365988      -0.00087966      -2.71177940       0.00000000
Si       0.00109143       2.71402803      -2.71157302       0.00000000
Si      -2.71271668       2.71373481       0.00584754       0.00000000
Si      -2.71272646      -2.71410948       0.00405888       0.00000000
Si       0.00068418      -2.71562445      -2.71140103       0.00000000
