10
Lattice="16.28999089631971 0.0 0.0 0.0 16.28999089631971 0.0 0.0 0.0 34.397273925272025" Properties=species:S:1:pos:R:3:initial_magmoms:R:1 pbc="T T T"
Si       1.05321366       1.49591070       1.37520378       0.00000000
Si      -0.25355385      -2.30298246      -0.28370887       0.00000000
Si       1.18123677       1.08017361      -1.91864661       0.00000000
Si      -2.48722236      -0.00114030       0.33375694       0.00000000
Si      -2.07410796      -1.06688097      -1.72275403       0.00000000
Si      -0.76621644       0.43175016      -3.04068632       0.00000000
Si       3.09861864      -0.46814202      -1.67432264       0.00000000
Si       3.39512922       1.01652858       0.81301442       0.00000000
Si       0.08987193      -3.07299447       1.94162401       0.00000000
Si       0.89779077       0.49106205       3.51447463       0.00000000
