10
Lattice="16.28999089631971 0.0 0.0 0.0 16.28999089631971 0.0 0.0 0.0 34.397273925272025" Properties=species:S:1:pos:R:3:initial_magmoms:R:1 pbc="T T T"
Si      -0.96881517       1.18837179       1.75071903       0.00000000
Si       2.24437104      -0.52545024       0.33719666       0.00000000
Si      -1.26395739      -1.94007384      -0.30273058       0.00000000
Si      -0.45781416       1.44062244      -1.82849131       0.00000000
Si      -2.87766108       1.27397574      -1.43388556       0.00000000
Si      -0.08786826      -2.86184349      -2.16420889       0.00000000
Si       2.03041818      -2.59512732       1.42776284       0.00000000
Si      -3.25663164      -1.05992514      -1.13669295       0.00000000
Si      -2.75059908       2.28296205       0.68839303       0.00000000
Si       0.66129255       2.78568774       2.28552814       0.00000000
