10
Lattice="16.28999089631971 0.0 0.0 0.0 16.28999089631971 0.0 0.0 0.0 34.397273925272025" Properties=species:S:1:pos:R:3:initial_magmoms:R:1 pbc="T T T"
Si      -1.40784696      -1.63071045      -0.91943965       0.00000000
Si      -1.19399184       1.95916572      -0.74198401       0.00000000
Si       2.27458899      -0.58518567      -0.61437005       0.00000000
Si      -0.00464265      -1.07761608       2.28312033       0.00000000
Si       0.69146163      -3.18868605       1.35339590       0.00000000
Si      -0.62558487      -1.85422554      -3.09183509       0.00000000
Si      -1.06701129       3.37890438       1.13889438       0.00000000
Si       2.52133362      -2.92221423      -0.15833074       0.00000000
Si      -3.63613162      -0.88571988      -1.10690489       0.00000000
Si       3.80101086       0.55275228       0.89099308       0.00000000
