10
Lattice="16.28999089631971 0.0 0.0 0.0 16.28999089631971 0.0 0.0 0.0 34.397273925272025" Properties=species:S:1:pos:R:3:initial_magmoms:R:1 pbc="T T T"
Si      -0.84191607      -1.60526547       1.61778867       0.00000000
Si      -1.69916103       1.74908988       0.29559799       0.00000000
Si       1.79678700       0.98489340       1.51837017       0.00000000
Si      -0.39547233      -1.32512634      -2.28401466       0.00000000
Si      -2.72922660      -2.52091008       0.60716352       0.00000000
Si       0.39179079       2.35587609       2.97698395       0.00000000
Si      -2.31583527      -0.36921285       3.01346915       0.00000000
Si      -2.59657713      -2.26121490      -1.72399233       0.00000000
Si      -3.56081318       0.92185110       1.54075937       0.00000000
Si       3.27508821       2.37307833       0.23840764       0.00000000
