10
Lattice="16.28999089631971 0.0 0.0 0.0 16.28999089631971 0.0 0.0 0.0 34.397273925272025" Properties=species:S:1:pos:R:3:initial_magmoms:R:1 pbc="T T T"
Si      -1.35415512       1.35514881      -1.35889946       0.00000000
Si       1.35679410       1.35689184       1.35656045       0.00000000
Si       1.35479043      -1.35821133      -1.35821152       0.00000000
Si      -1.35834165      -1.35795069       1.35656045       0.00000000
Si      -2.71332756      -2.71446786      -0.00103192       0.00000000
Si       2.71409319      -0.00016290       2.71429040       0.00000000
Si       2.71360449      -2.71500543       0.00003440       0.00000000
Si      -0.00122175       2.71480995       2.71487516       0.00000000
Si      -0.00089595      -2.71643895       2.71336168       0.00000000
Si      -2.71606428      -0.00030951       2.71374005       0.00000000
