10
Lattice="16.28999089631971 0.0 0.0 0.0 16.28999089631971 0.0 0.0 0.0 34.397273925272025" Properties=species:S:1:pos:R:3:initial_magmoms:R:1 pbc="T T T"
Si      -1.35433431       1.35136953      -1.36110089       0.00000000
Si       1.35604476       1.34858394       1.38380310       0.00000000
Si       1.36278882      -1.36601424      -1.36044734       0.00000000
Si      -1.37002158      -1.36257705       1.37496300       0.00000000
Si       2.67387318      -0.14866254       2.70909641       0.00000000
Si      -2.70730026       2.70557352      -0.00123830       0.00000000
Si       2.71764441       2.70783783      -0.00141029       0.00000000
Si       0.00340461       2.70873378      -2.71821169       0.00000000
Si      -2.71143792      -0.00638568      -2.71934680       0.00000000
Si      -2.70347211      -2.72976417      -0.00725783       0.00000000
