10
Lattice="16.28999089631971 0.0 0.0 0.0 16.28999089631971 0.0 0.0 0.0 34.397273925272025" Properties=species:S:1:pos:R:3:initial_magmoms:R:1 pbc="T T T"
Si       1.41260364      -1.22803794      -1.36622609       0.00000000
Si       1.84782357       0.97407684       1.12406914       0.00000000
Si      -1.31782842       1.49724648      -1.32529331       0.00000000
Si      -0.77367726      -1.99695852       1.11980388       0.00000000
Si       0.56184210       1.50143301       3.04801294       0.00000000
Si       0.04645908      -2.57307066      -2.71618225       0.00000000
Si       2.80075599      -2.50923015       0.05789064       0.00000000
Si      -2.72113047      -2.64538197      -0.00223582       0.00000000
Si      -2.67387318       0.14866254      -2.70909641       0.00000000
Si       2.75928165       0.14074560      -2.70906201       0.00000000
