10
Lattice="16.28999089631971 0.0 0.0 0.0 16.28999089631971 0.0 0.0 0.0 34.397273925272025" Properties=species:S:1:pos:R:3:initial_magmoms:R:1 pbc="T T T"
Si       1.83860343      -1.37673306       0.42150443       0.00000000
Si       0.45372537       2.28610602       0.55324606       0.00000000
Si      -1.43669655      -0.40949802       1.88215109       0.00000000
Si      -0.25778925      -0.57863709      -2.42112227       0.00000000
Si       0.28157265      -3.31753995       0.27232337       0.00000000
Si      -1.69473015       3.32921988       0.14488140       0.00000000
Si       1.00119969       2.12854914       2.91355392       0.00000000
Si      -3.53129081       0.47115567       1.40206807       0.00000000
Si       3.63799683      -0.71019513      -1.10817759       0.00000000
Si      -0.78255531       0.89072091       3.74115279       0.00000000
