10
Lattice="16.28999089631971 0.0 0.0 0.0 16.28999089631971 0.0 0.0 0.0 34.397273925272025" Properties=species:S:1:pos:R:3:initial_magmoms:R:1 pbc="T T T"
Si      -1.83860343       1.37673306      -0.42150443       0.00000000
Si       0.96888033       0.27129366       2.13885809       0.00000000
Si       1.79939340       0.66653793      -1.52968202       0.00000000
Si      -1.55703078      -1.94080689      -0.14918106       0.00000000
Si      -2.09639268       0.79809597      -2.84262670       0.00000000
Si       2.24818290      -1.38504096      -2.56246075       0.00000000
Si      -3.27529998       0.96723504       1.46064666       0.00000000
Si       1.33695288       2.60193654       2.57824911       0.00000000
Si      -1.38487806       3.66283908       0.13174163       0.00000000
Si      -1.09921662      -3.38142933       1.67931025       0.00000000
