10
Lattice="16.28999089631971 0.0 0.0 0.0 16.28999089631971 0.0 0.0 0.0 34.397273925272025" Properties=species:S:1:pos:R:3:initial_magmoms:R:1 pbc="T T T"
Si      -0.96888033      -0.27129366      -2.13885809       0.00000000
Si       0.36807255       2.33064288       0.43939102       0.00000000
Si       2.24026596      -0.95294871       0.17160810       0.00000000
Si      -1.40680440      -0.86703525       1.82598031       0.00000000
Si       0.51647445      -1.61371998       2.95926792       0.00000000
Si       1.64160846      -2.92964247       1.27517645       0.00000000
Si      -1.80628407       3.23398854       0.35319141       0.00000000
Si       1.89042192       2.21501646       2.32563539       0.00000000
Si       0.83051307       0.39524427      -3.66854011       0.00000000
Si       3.42814905       0.60235533       1.58550883       0.00000000
