10
Lattice="16.28999089631971 0.0 0.0 0.0 16.28999089631971 0.0 0.0 0.0 34.397273925272025" Properties=species:S:1:pos:R:3:initial_magmoms:R:1 pbc="T T T"
Si      -1.29166521       1.33864215       1.41906721       0.00000000
Si       1.05342543       1.88996091      -0.97080340       0.00000000
Si      -1.27872129      -1.30881891      -1.57659103       0.00000000
Si       1.45142271      -1.37009881       1.39152186       0.00000000
Si      -2.53849418      -2.63565262       0.01116536       0.00000000
Si      -2.63087477       2.68414728      -0.06499025       0.00000000
Si      -0.75948541       3.45295383      -1.29233180       0.00000000
Si      -2.62566197      -0.01688947       2.78314346       0.00000000
Si       0.09200918       2.69440998       2.77791508       0.00000000
Si       0.24864241      -2.34601642      -3.07390520       0.00000000
