10
Lattice="16.28999089631971 0.0 0.0 0.0 16.28999089631971 0.0 0.0 0.0 34.397273925272025" Properties=species:S:1:pos:R:3:initial_magmoms:R:1 pbc="T T T"
Si       0.71956188       2.22516513       0.71959137       0.00000000
Si       1.67549166      -1.05795405       1.50199220       0.00000000
Si      -2.25787545      -0.50293746       0.95655433       0.00000000
Si       0.56337336       1.03211811      -2.28294835       0.00000000
Si       1.08157455       0.42756363       3.42394096       0.00000000
Si       1.86870735       2.82779739      -1.37252079       0.00000000
Si       3.15656217       1.91505240       0.42030052       0.00000000
Si      -3.18779010       1.68679692       1.11553861       0.00000000
Si       3.73834323      -0.33047523       0.55740814       0.00000000
Si       0.13812291       2.63168208       2.88679283       0.00000000
