10
Lattice="16.28999089631971 0.0 0.0 0.0 16.28999089631971 0.0 0.0 0.0 34.397273925272025" Properties=species:S:1:pos:R:3:initial_magmoms:R:1 pbc="T T T"
Si       1.89411975       0.68815476      -1.30393259       0.00000000
Si      -1.86430905      -0.54670869      -1.42793483       0.00000000
Si       0.53603874      -2.09313468       1.09545059       0.00000000
Si      -0.54429777       1.59161445       1.77637941       0.00000000
Si       2.31795297      -1.33566597      -2.53539008       0.00000000
Si      -2.80776069       1.65740976      -1.96508296       0.00000000
Si       2.83459032      -1.82522934       1.81978879       0.00000000
Si      -3.35974734      -1.96157664      -0.21749408       0.00000000
Si      -2.64823272       0.90316647       2.75687425       0.00000000
Si      -1.26335466      -2.75967261       2.62513262       0.00000000
