10
Lattice="16.28999089631971 0.0 0.0 0.0 16.28999089631971 0.0 0.0 0.0 34.397273925272025" Properties=species:S:1:pos:R:3:initial_magmoms:R:1 pbc="T T T"
Si      -1.78375500      -1.23782823       0.82759887       0.00000000
Si      -0.00260640       1.59998751       1.70025820       0.00000000
Si       2.17435662      -0.90334566       0.08619962       0.00000000
Si      -0.54747432       0.15755688      -2.36030786       0.00000000
Si       3.15618750       0.60761700      -1.46480873       0.00000000
Si      -3.41830989       0.44766549       1.14364120       0.00000000
Si      -2.43789624      -2.53804716      -1.03140284       0.00000000
Si      -2.22146730       2.41437741       1.69011100       0.00000000
Si       1.80628407      -3.23398854      -0.35319141       0.00000000
Si      -0.93825513      -2.49162066       2.62021381       0.00000000
