10
Lattice="16.28999089631971 0.0 0.0 0.0 16.28999089631971 0.0 0.0 0.0 34.397273925272025" Properties=species:S:1:pos:R:3:initial_magmoms:R:1 pbc="T T T"
Si       2.21886090      -0.81438990       0.01014720       0.00000000
Si      -1.19684259      -1.96671192      -0.54646980       0.00000000
Si      -0.15842025       1.37126288       1.94798751       0.00000000
Si      -0.76830156       1.40247452      -1.77589785       0.00000000
Si       0.48697326       3.29208194      -1.27015445       0.00000000
Si      -0.29528883       3.51559703       0.90224100       0.00000000
Si       2.22146730      -2.41437741      -1.69011100       0.00000000
Si       0.43771230      -3.65220564      -0.86251213       0.00000000
Si      -3.10856531      -2.02338483       0.79997785       0.00000000
Si      -3.11757043       1.56695465      -1.49163862       0.00000000
