10
Lattice="16.28999089631971 0.0 0.0 0.0 16.28999089631971 0.0 0.0 0.0 34.397273925272025" Properties=species:S:1:pos:R:3:initial_magmoms:R:1 pbc="T T T"
Si      -1.27335672       1.35479043      -1.48479356       0.00000000
Si       1.81411956       1.17260307       1.04829191       0.00000000
Si      -1.80274914      -0.45025560       1.58492408       0.00000000
Si       1.40854743      -1.36187658      -1.46556547       0.00000000
Si      -2.38614291      -2.36365457      -0.05094239       0.00000000
Si      -2.52853380       2.77933464      -0.13439022       0.00000000
Si       3.55021002      -0.51528528       1.17762573       0.00000000
Si       2.82411585      -2.54020884       0.06377258       0.00000000
Si      -2.65452066       0.00211770      -2.84754552       0.00000000
Si       0.06809220       2.70853830      -2.84479373       0.00000000
