10
Lattice="16.28999089631971 0.0 0.0 0.0 16.28999089631971 0.0 0.0 0.0 34.397273925272025" Properties=species:S:1:pos:R:3:initial_magmoms:R:1 pbc="T T T"
Si      -1.39890375      -1.29168297      -1.39288399       0.00000000
Si      -1.21570641       0.62420022       1.93708356       0.00000000
Si       1.26390852      -1.84293657       0.82704852       0.00000000
Si       1.10980512       1.80120159      -1.13101740       0.00000000
Si      -1.42965927      -1.44547686       3.02764974       0.00000000
Si       0.85273263      -1.89677502       3.12767707       0.00000000
Si       2.45053728       0.74358963      -2.78573358       0.00000000
Si      -1.33613838      -0.39073194      -3.56968229       0.00000000
Si       0.24962796       1.87273098       3.33461119       0.00000000
Si       3.52520487      -1.55890413       0.40052208       0.00000000
