10
Lattice="16.28999089631971 0.0 0.0 0.0 16.28999089631971 0.0 0.0 0.0 34.397273925272025" Properties=species:S:1:pos:R:3:initial_magmoms:R:1 pbc="T T T"
Si      -0.79273656      -1.30994406      -1.79632984       0.00000000
Si      -0.32084784       2.30764140      -0.49851997       0.00000000
Si      -2.09398176      -0.60766587       1.19719779       0.00000000
Si       2.37540780      -0.33660027      -1.89391496       0.00000000
Si      -0.73094859      -2.00179665       2.48774983       0.00000000
Si       1.12414032       2.92646592       1.34194160       0.00000000
Si      -3.04522002      -1.21114521      -1.14278127       0.00000000
Si       2.06702181       0.98948718       2.64972668       0.00000000
Si       0.25148502      -3.37841568      -1.42139934       0.00000000
Si       1.10672631       0.93046851      -3.42748388       0.00000000
