10
Lattice="16.28999089631971 0.0 0.0 0.0 16.28999089631971 0.0 0.0 0.0 34.397273925272025" Properties=species:S:1:pos:R:3:initial_magmoms:R:1 pbc="T T T"
Si       1.33081155       1.34943102      -1.37399987       0.00000000
Si      -1.30492674       1.42892622       1.37286476       0.00000000
Si      -1.38344454      -1.36609569      -1.37018178       0.00000000
Si       1.45313316      -1.31093775       1.49838049       0.00000000
Si      -2.29490262      -0.53276445       2.46294938       0.00000000
Si      -0.45856350      -2.23062228       2.67115620       0.00000000
Si       2.69563662       2.71046052       0.02679549       0.00000000
Si       2.68998399      -2.72818404       0.00313015       0.00000000
Si       2.69040753      -0.00584811      -2.73375927       0.00000000
Si      -0.02458161       2.70894555      -2.73283054       0.00000000
