10
Lattice="16.28999089631971 0.0 0.0 0.0 16.28999089631971 0.0 0.0 0.0 34.397273925272025" Properties=species:S:1:pos:R:3:initial_magmoms:R:1 pbc="T T T"
Si      -1.28492262       0.42757992       1.95101447       0.00000000
Si      -1.02340296      -1.62064323      -1.41104576       0.00000000
Si      -0.39612393       2.04367824      -1.16479554       0.00000000
Si       2.33756613      -0.30555153       0.48586177       0.00000000
Si       1.57894083       1.80379170      -2.53477093       0.00000000
Si       2.85752664       1.92176388       0.91651588       0.00000000
Si      -2.24588601      -0.27580599      -2.92191246       0.00000000
Si      -2.69467551       1.77577290      -1.88913374       0.00000000
Si      -0.09703953       1.98288396       3.36491520       0.00000000
Si      -1.88358012      -1.54911384       3.05458282       0.00000000
