10
Lattice="16.28999089631971 0.0 0.0 0.0 16.28999089631971 0.0 0.0 0.0 34.397273925272025" Properties=species:S:1:pos:R:3:initial_magmoms:R:1 pbc="T T T"
Si       1.35615879       1.35650088       1.35717960       0.00000000
Si       1.35275418      -1.35837423      -1.36079131       0.00000000
Si      -1.35822762      -1.35884664       1.35721400       0.00000000
Si      -1.35847197       1.35788553      -1.35814272       0.00000000
Si      -0.00084708       2.71388229       2.71508154       0.00000000
Si       2.71438641      -0.00074934       2.71459998       0.00000000
Si      -2.71549413       2.71402929      -0.00034397       0.00000000
Si       2.71482624       2.71553121       0.00044716       0.00000000
Si      -2.71502172      -2.71573848       0.00065355       0.00000000
Si      -0.00092853      -2.71590138       2.71494395       0.00000000
