10
Lattice="16.28999089631971 0.0 0.0 0.0 16.28999089631971 0.0 0.0 0.0 34.397273925272025" Properties=species:S:1:pos:R:3:initial_magmoms:R:1 pbc="T T T"
Si      -0.58178106       2.24552763      -0.13710761       0.00000000
Si       1.52549334      -0.03091842       1.75907757       0.00000000
Si       1.28598147      -0.52735617      -1.92394380       0.00000000
Si      -2.06285157      -0.72747882       0.94458407       0.00000000
Si      -0.56184210      -1.50143301      -3.04801294       0.00000000
Si      -1.46354247      -3.08265444       1.36564133       0.00000000
Si       3.51137466       0.79765614       0.88208419       0.00000000
Si       0.87837309      -3.56203656       0.80345197       0.00000000
Si       1.10166012       1.99290231       2.99053506       0.00000000
Si      -3.73834323       0.33047523      -0.55740814       0.00000000
