10
Lattice="16.28999089631971 0.0 0.0 0.0 16.28999089631971 0.0 0.0 0.0 34.397273925272025" Properties=species:S:1:pos:R:3:initial_magmoms:R:1 pbc="T T T"
Si      -1.98588132      -0.82857456       0.87699339       0.00000000
Si       1.00359432      -0.03772764       2.17514723       0.00000000
Si      -0.38752281       2.44969020      -0.22316964       0.00000000
Si       0.21348045       1.89581391      -2.44293016       0.00000000
Si      -2.40971454       1.19524617       2.10845088       0.00000000
Si      -0.27121221       1.75663215       2.96931193       0.00000000
Si      -3.51137466      -0.79765614      -0.88208419       0.00000000
Si       3.29403348      -0.14797836       1.73830161       0.00000000
Si       3.43122786       1.48297644       0.05627397       0.00000000
Si      -2.22539319      -1.32501231      -2.80602798       0.00000000
