10
Lattice="16.28999089631971 0.0 0.0 0.0 16.28999089631971 0.0 0.0 0.0 34.397273925272025" Properties=species:S:1:pos:R:3:initial_magmoms:R:1 pbc="T T T"
Si       1.32092352      -0.80096301       1.80217738       0.00000000
Si       1.28666565       1.56970440      -1.26179590       0.00000000
Si      -0.27904770      -2.06962821      -1.21701063       0.00000000
Si      -2.05820892       1.10882772       0.61557396       0.00000000
Si       0.91898406       1.00514187      -3.47987096       0.00000000
Si      -3.04003980      -0.40213494       2.16658230       0.00000000
Si       2.97460287      -2.19154257       0.86430078       0.00000000
Si       1.69601706      -2.30951475      -2.58698602       0.00000000
Si       2.88365580       0.84763386       2.44822734       0.00000000
Si       3.41448174      -1.36953288      -1.26072959       0.00000000
