10
Lattice="16.28999089631971 0.0 0.0 0.0 16.28999089631971 0.0 0.0 0.0 34.397273925272025" Properties=species:S:1:pos:R:3:initial_magmoms:R:1 pbc="T T T"
Si       1.33399675       1.35553163      -1.36407626       0.00000000
Si      -1.35760860       1.35382117       1.35487498       0.00000000
Si       1.35858600      -1.35972534       1.35477179       0.00000000
Si      -1.35845568      -1.35559561      -1.37300923       0.00000000
Si       0.08716779      -2.61876315      -2.77197810       0.00000000
Si       2.62566197       0.01688947      -2.78314346       0.00000000
Si      -2.71352304       2.71028948      -0.00584754       0.00000000
Si       0.00004887       2.71206508       2.71212337       0.00000000
Si       2.71436265      -0.00219589       2.71236415       0.00000000
Si      -2.71510317      -0.00208675       2.71205458       0.00000000
