10
Lattice="16.28999089631971 0.0 0.0 0.0 16.28999089631971 0.0 0.0 0.0 34.397273925272025" Properties=species:S:1:pos:R:3:initial_magmoms:R:1 pbc="T T T"
Si      -1.35651717      -1.35628202      -1.35687002       0.00000000
Si       1.35749457       1.35590792      -1.35717960       0.00000000
Si      -1.35759231       1.35708080       1.35745478       0.00000000
Si       1.35741312      -1.35842573       1.35735158       0.00000000
Si       2.71510317       0.00208675      -2.71205458       0.00000000
Si       0.00102627      -2.71435124       2.71380884       0.00000000
Si      -2.71477737       2.71408667      -0.00003440       0.00000000
Si       2.71515204       2.71415183       0.00006879       0.00000000
Si       0.00144981       2.71524326       2.71411842       0.00000000
Si      -2.71366965      -0.00028996       2.71611346       0.00000000
