10
Lattice="16.28999089631971 0.0 0.0 0.0 16.28999089631971 0.0 0.0 0.0 34.397273925272025" Properties=species:S:1:pos:R:3:initial_magmoms:R:1 pbc="T T T"
Si       0.87645087      -1.19110851       1.81806893       0.00000000
Si      -0.95035860      -1.15810497      -1.90547245       0.00000000
Si      -1.42164459       1.72776627       1.08578496       0.00000000
Si       1.40725467      -2.38582526      -0.30637669       0.00000000
Si       1.59466461       1.33349940      -2.02565659       0.00000000
Si       0.96764229      -0.57839274      -3.19330711       0.00000000
Si      -2.68644906       0.52978338      -2.03480627       0.00000000
Si       0.34520139       0.07467336       3.75673477       0.00000000
Si       0.45271539       3.38432895      -1.64787112       0.00000000
Si       0.00799839       3.73842468       0.70356223       0.00000000
