10
Lattice="16.28999089631971 0.0 0.0 0.0 16.28999089631971 0.0 0.0 0.0 34.397273925272025" Properties=species:S:1:pos:R:3:initial_magmoms:R:1 pbc="T T T"
Si      -0.44769807       1.73747511       1.55145551       0.00000000
Si       1.17265194       1.79514171      -1.04316671       0.00000000
Si      -1.81411956      -1.17260307      -1.04829191       0.00000000
Si       1.73609046      -1.68788835       0.12933382       0.00000000
Si       2.68644906      -0.52978338       2.03480627       0.00000000
Si       2.32424091       0.20500965      -2.53669718       0.00000000
Si       1.26480447       1.19798289       3.12059123       0.00000000
Si      -0.40557213      -2.53447965      -2.51385738       0.00000000
Si      -0.37914975       2.90665728      -2.51296305       0.00000000
Si       1.00999629      -3.71281191      -0.98451932       0.00000000
