10
Lattice="16.28999089631971 0.0 0.0 0.0 16.28999089631971 0.0 0.0 0.0 34.397273925272025" Properties=species:S:1:pos:R:3:initial_magmoms:R:1 pbc="T T T"
Si      -2.18044908       0.71304588      -0.39188836       0.00000000
Si       0.71701203      -1.57258773       1.61773909       0.00000000
Si       0.53124948      -1.26578187      -1.93866584       0.00000000
Si       0.91803828       2.15748018       0.40647281       0.00000000
Si       2.93466698      -0.73884924       1.64047570       0.00000000
Si      -1.76684598       1.65309291      -2.67094981       0.00000000
Si       2.83845824       1.65048651       1.59665355       0.00000000
Si      -0.47931696       2.92001508       2.17676390       0.00000000
Si      -2.61350244       2.19263400       1.39955706       0.00000000
Si      -0.49866948      -3.34962522      -1.51798694       0.00000000
