10
Lattice="16.28999089631971 0.0 0.0 0.0 16.28999089631971 0.0 0.0 0.0 34.397273925272025" Properties=species:S:1:pos:R:3:initial_magmoms:R:1 pbc="T T T"
Si      -1.35717917      -1.35782037      -1.35662924       0.00000000
Si       1.35810382      -1.35754344       1.35711080       0.00000000
Si      -1.35807968       1.35733167       1.35748917       0.00000000
Si       1.35976540       1.35839052      -1.35738598       0.00000000
Si       2.71365988       0.00087966       2.71177940       0.00000000
Si       2.71261732       0.00210141      -2.71429040       0.00000000
Si       0.00093342      -2.71322982       2.71583828       0.00000000
Si       2.71434406      -2.71474479       0.00037837       0.00000000
Si       2.71475131       2.71490769       0.00020638       0.00000000
Si      -2.71384951      -0.00081450       2.71601027       0.00000000
