10
Lattice="16.28999089631971 0.0 0.0 0.0 16.28999089631971 0.0 0.0 0.0 34.397273925272025" Properties=species:S:1:pos:R:3:initial_magmoms:R:1 pbc="T T T"
Si      -1.27345446      -1.63135458      -1.04492097       0.00000000
Si       1.45175053      -1.21824325       1.50250816       0.00000000
Si      -1.40460525       1.44562184       1.38999462       0.00000000
Si       1.16691786       0.20031976      -2.26826070       0.00000000
Si       3.30187616       0.08871371      -1.20160064       0.00000000
Si       1.10592810       2.51062946      -2.47399091       0.00000000
Si       2.97911424      -2.25544077       0.00519399       0.00000000
Si      -0.06302601      -3.71134323      -0.80967788       0.00000000
Si      -2.66686848      -2.69370693       0.51052462       0.00000000
Si      -3.19168341       2.30527772       0.01953766       0.00000000
