10
Lattice="16.28999089631971 0.0 0.0 0.0 16.28999089631971 0.0 0.0 0.0 34.397273925272025" Properties=species:S:1:pos:R:3:initial_magmoms:R:1 pbc="T T T"
Si       1.34500014       1.34855136      -1.37960663       0.00000000
Si      -1.36687761      -1.37072205      -1.38012259       0.00000000
Si      -1.32706485       1.41301089       1.38762120       0.00000000
Si       1.55180169      -1.11151557       1.46979634       0.00000000
Si       2.70339066      -2.70164763      -0.02373413       0.00000000
Si       2.70488934       2.70089829      -0.00601953       0.00000000
Si      -2.71521720       2.69420310      -0.03649553       0.00000000
Si      -2.70832653      -2.72446992      -0.02012242       0.00000000
Si       2.70598077      -0.00884547      -2.74008837       0.00000000
Si      -0.01063737       2.70850572      -2.74060433       0.00000000
