10
Lattice="16.28999089631971 0.0 0.0 0.0 16.28999089631971 0.0 0.0 0.0 34.397273925272025" Properties=species:S:1:pos:R:3:initial_magmoms:R:1 pbc="T T T"
Si      -1.17265194      -1.79514171       1.04316671       0.00000000
Si      -1.55180169       1.11151557      -1.46979634       0.00000000
Si       1.15158897      -1.59013206      -1.49353047       0.00000000
Si       1.96651251       1.05940386       1.43010186       0.00000000
Si      -1.62035001      -0.05766660       2.59462222       0.00000000
Si       3.10846173      -0.99142569       1.05231639       0.00000000
Si       0.56343852      -3.48303006       1.17250053       0.00000000
Si      -0.20680155       2.46006693      -2.84940297       0.00000000
Si       2.50732465      -0.25436835      -2.85679839       0.00000000
Si       2.48143941      -2.90331783      -0.11533412       0.00000000
