10
Lattice="16.28999089631971 0.0 0.0 0.0 16.28999089631971 0.0 0.0 0.0 34.397273925272025" Properties=species:S:1:pos:R:3:initial_magmoms:R:1 pbc="T T T"
Si      -1.34798121      -1.35379674      -1.36595091       0.00000000
Si       1.36417347       1.36269108      -1.36712042       0.00000000
Si       1.37595114      -1.29555999       1.44420475       0.00000000
Si      -1.50578244       1.21425660       1.39013221       0.00000000
Si       0.00615762       2.50484814       2.66296964       0.00000000
Si      -0.24829218      -2.35380726       2.89105809       0.00000000
Si      -2.69458591       2.71153566      -0.01516921       0.00000000
Si      -2.70108888      -2.71407364       0.01458445       0.00000000
Si       2.72279205      -2.70208746       0.00564116       0.00000000
Si      -2.70622675       0.00535941      -2.72271774       0.00000000
