10
Lattice="16.28999089631971 0.0 0.0 0.0 16.28999089631971 0.0 0.0 0.0 34.397273925272025" Properties=species:S:1:pos:R:3:initial_magmoms:R:1 pbc="T T T"
Si      -1.27444815       0.24759171       1.90526607       0.00000000
Si       2.29614066      -0.30566556       0.30603272       0.00000000
Si      -0.44945739       1.36246302      -1.85955206       0.00000000
Si      -1.10224656      -2.05982163      -0.24821087       0.00000000
Si       2.48924609      -1.98905787      -1.37076653       0.00000000
Si      -2.98170531      -1.49887548       1.22567875       0.00000000
Si      -0.00576666      -1.01947707       3.43883499       0.00000000
Si       3.04585111       1.87014087       0.72488856       0.00000000
Si       1.01783178       0.67930929      -3.63262933       0.00000000
Si       0.07050312       3.58977843      -1.42889795       0.00000000
