10
Lattice="16.28999089631971 0.0 0.0 0.0 16.28999089631971 0.0 0.0 0.0 34.397273925272025" Properties=species:S:1:pos:R:3:initial_magmoms:R:1 pbc="T T T"
Si      -2.10276207      -0.91261467      -0.50395474       0.00000000
Si       0.52749531      -0.70416783       2.18336818       0.00000000
Si       1.40976659      -0.91510704      -1.67342831       0.00000000
Si       0.11922651       2.18343015      -0.95617595       0.00000000
Si       2.53080530       0.50272569       2.35642096       0.00000000
Si       0.89070040      -2.97618300       1.80974478       0.00000000
Si       0.19914525      -0.19880316      -3.63675701       0.00000000
Si       0.94885570       1.97700327      -3.21790117       0.00000000
Si       1.32945852      -3.22563177      -1.75071903       0.00000000
Si       1.23438682       3.71605851       0.42821190       0.00000000
