10
Lattice="16.28999089631971 0.0 0.0 0.0 16.28999089631971 0.0 0.0 0.0 34.397273925272025" Properties=species:S:1:pos:R:3:initial_magmoms:R:1 pbc="T T T"
Si      -1.35573568      -1.33576371       1.36326792       0.00000000
Si      -1.35314557       1.35703845      -1.35308632       0.00000000
Si       1.36163736      -1.35537687      -1.35325831       0.00000000
Si       1.37327820       1.35079938       1.35429023       0.00000000
Si       2.56208167      -0.14647968       2.75959164       0.00000000
Si      -2.50732465       0.25436835       2.85679839       0.00000000
Si      -0.02588524      -2.64894948       2.74146426       0.00000000
Si      -2.71215511       0.00039096      -2.71171061       0.00000000
Si       0.00247629      -2.71409319      -2.71067869       0.00000000
Si       0.00262427       2.71518462      -2.71160741       0.00000000
