10
Lattice="16.28999089631971 0.0 0.0 0.0 16.28999089631971 0.0 0.0 0.0 34.397273925272025" Properties=species:S:1:pos:R:3:initial_magmoms:R:1 pbc="T T T"
Si       1.35765371      -1.35272160       1.36061933       0.00000000
Si      -1.35073422      -1.36088289      -1.36110777       0.00000000
Si      -1.35720135       1.36220238       1.35903705       0.00000000
Si       1.37314926       1.37391489      -1.36560350       0.00000000
Si      -2.60708418       0.10707417      -2.67216748       0.00000000
Si       2.71044327      -2.70992295      -0.00127270       0.00000000
Si      -2.71293660      -2.71275741       0.00237341       0.00000000
Si      -0.00096111      -2.71098180       2.71728297       0.00000000
Si       2.71192729       2.71668330       0.00409328       0.00000000
Si       2.71435450       0.00342090       2.71717977       0.00000000
