10
Lattice="16.28999089631971 0.0 0.0 0.0 16.28999089631971 0.0 0.0 0.0 34.397273925272025" Properties=species:S:1:pos:R:3:initial_magmoms:R:1 pbc="T T T"
Si       1.33877803       1.34276841       1.36969677       0.00000000
Si      -1.37314926      -1.37391489       1.36560350       0.00000000
Si       1.55436478      -1.14121224      -1.39511293       0.00000000
Si      -1.28673081       1.44347319      -1.40111182       0.00000000
Si      -0.18019998      -2.17665351      -2.58567308       0.00000000
Si      -2.27043504      -0.15219747      -2.84398681       0.00000000
Si       2.70318608       2.70902700      -0.02075533       0.00000000
Si       2.69732168      -0.01293426       2.72553488       0.00000000
Si      -0.01531260       2.70251100       2.72563807       0.00000000
Si      -2.73235428       2.70664073      -0.00214295       0.00000000
