10
Lattice="16.28999089631971 0.0 0.0 0.0 16.28999089631971 0.0 0.0 0.0 34.397273925272025" Properties=species:S:1:pos:R:3:initial_magmoms:R:1 pbc="T T T"
Si       1.34914311       1.35259128      -1.39742443       0.00000000
Si      -1.36482507      -1.36102950      -1.40079537       0.00000000
Si       1.41333932      -1.40383962       1.49827729       0.00000000
Si      -1.32139593       1.53097885       1.51079791       0.00000000
Si      -2.55166560      -0.02239875       2.79925172       0.00000000
Si       2.53583891       0.21778101       2.83302986       0.00000000
Si      -2.69563662      -2.71046052      -0.02679549       0.00000000
Si       2.71535959       2.70975420      -0.02060398       0.00000000
Si       2.70753551      -2.72706003      -0.02462846       0.00000000
Si      -2.73696435       2.70931112      -0.01854014       0.00000000
