10
Lattice="16.28999089631971 0.0 0.0 0.0 16.28999089631971 0.0 0.0 0.0 34.397273925272025" Properties=species:S:1:pos:R:3:initial_magmoms:R:1 pbc="T T T"
Si      -0.49777353      -1.52029683       1.68704964       0.00000000
Si       2.29043916      -0.11025072      -0.43684562       0.00000000
Si      -1.27480653       1.79435979       0.79416470       0.00000000
Si      -1.00359432       0.03772764      -2.17514723       0.00000000
Si       1.22069115      -0.58031496       3.01330607       0.00000000
Si      -2.98947564      -0.79084692      -1.29815384       0.00000000
Si       2.35033749      -2.50297479      -0.43825591       0.00000000
Si       2.42763354       1.52070408      -2.11887326       0.00000000
Si      -3.41330886       1.23297381      -0.06669635       0.00000000
Si       0.65129049      -3.45401757       0.99363461       0.00000000
