10
Lattice="16.28999089631971 0.0 0.0 0.0 16.28999089631971 0.0 0.0 0.0 34.397273925272025" Properties=species:S:1:pos:R:3:initial_magmoms:R:1 pbc="T T T"
Si       0.81757881       0.69351417       2.05004427       0.00000000
Si      -0.17643699      -2.35465434       0.03666751       0.00000000
Si      -2.30425308       0.58458294       0.03560120       0.00000000
Si       1.45816677       1.24295958      -1.44902037       0.00000000
Si      -2.67193467       0.02002041      -2.18247385       0.00000000
Si       0.86934843       3.03067209       1.65956620       0.00000000
Si       2.08414164      -2.96728866      -0.12764835       0.00000000
Si      -1.39712814      -1.77433938      -2.97663856       0.00000000
Si      -0.70726293      -0.13748760       3.74562444       0.00000000
Si       2.76301436      -1.78297308      -1.98310714       0.00000000
