10
Lattice="16.28999089631971 0.0 0.0 0.0 16.28999089631971 0.0 0.0 0.0 34.397273925272025" Properties=species:S:1:pos:R:3:initial_magmoms:R:1 pbc="T T T"
Si      -0.62702232      -1.91189214      -1.16765051       0.00000000
Si       1.96094459       0.59057766      -1.14952314       0.00000000
Si      -1.14194922       2.05082955       0.37778547       0.00000000
Si      -1.59466461      -1.33349940       2.02565659       0.00000000
Si      -1.95687276      -0.59870637      -2.54584686       0.00000000
Si       2.29433573       0.20346210       2.39535870       0.00000000
Si       0.77214111       2.08785672      -2.55482455       0.00000000
Si      -3.10846173       0.99142569      -1.05231639       0.00000000
Si      -2.54502321      -2.49160437       0.12018414       0.00000000
Si      -0.25216106       3.71698704      -1.20765457       0.00000000
