10
Lattice="16.28999089631971 0.0 0.0 0.0 16.28999089631971 0.0 0.0 0.0 34.397273925272025" Properties=species:S:1:pos:R:3:initial_magmoms:R:1 pbc="T T T"
Si       1.92041995      -0.50699367       1.19018074       0.00000000
Si       0.50493787       1.44088308      -1.81903205       0.00000000
Si      -0.91803828      -2.15748018      -0.40647281       0.00000000
Si      -1.39735524       0.76253490       1.77029109       0.00000000
Si      -3.09848736      -1.44443430      -0.79836117       0.00000000
Si      -3.53154072       0.03515382       0.99308425       0.00000000
Si       2.01662869      -2.89632942       1.23400289       0.00000000
Si       1.98351112       0.73168164       3.12898417       0.00000000
Si      -1.65170730       3.07509588       1.65860308       0.00000000
Si       0.97127496       3.68615007      -0.90003957       0.00000000
