10
Lattice="16.28999089631971 0.0 0.0 0.0 16.28999089631971 0.0 0.0 0.0 34.397273925272025" Properties=species:S:1:pos:R:3:initial_magmoms:R:1 pbc="T T T"
Si       0.20342952       1.11837366       1.98943624       0.00000000
Si       2.17165248       0.02857266      -0.81494067       0.00000000
Si      -0.54859833      -2.16806868       0.76695645       0.00000000
Si      -1.17087633       0.35697906      -2.20727430       0.00000000
Si      -1.87621704       0.54517743       2.77641191       0.00000000
Si      -1.24115139      -2.66449014      -1.98833553       0.00000000
Si       1.82822670       0.79858467      -3.04027355       0.00000000
Si       2.53301355      -2.37724857      -1.22113830       0.00000000
Si      -1.78000830      -1.84415832       2.82023407       0.00000000
Si       1.45215576      -3.51238790       0.62534279       0.00000000
