10
Lattice="16.28999089631971 0.0 0.0 0.0 16.28999089631971 0.0 0.0 0.0 34.397273925272025" Properties=species:S:1:pos:R:3:initial_magmoms:R:1 pbc="T T T"
Si       2.07964656       0.57319623      -0.78697567       0.00000000
Si       0.06309117       1.23867531       1.93880343       0.00000000
Si      -1.92041995       0.50699367      -1.19018074       0.00000000
Si       0.09620874      -2.38933575       0.04382215       0.00000000
Si       1.87621704      -0.54517743      -2.77641191       0.00000000
Si       3.23185455      -0.56324304       0.91128749       0.00000000
Si       2.05576542       0.35852661       2.77276580       0.00000000
Si      -2.10071295       0.91372239       2.73028514       0.00000000
Si      -3.31777520       1.26952857       0.58011035       0.00000000
Si       1.32761871      -2.71324611      -2.00945547       0.00000000
