10
Lattice="16.28999089631971 0.0 0.0 0.0 16.28999089631971 0.0 0.0 0.0 34.397273925272025" Properties=species:S:1:pos:R:3:initial_magmoms:R:1 pbc="T T T"
Si      -1.35735448       1.35721764      -1.35721400       0.00000000
Si       1.35772263      -1.35764118      -1.35717960       0.00000000
Si       1.35710361       1.35775521       1.35824591       0.00000000
Si      -1.35608548      -1.35793440       1.36024096       0.00000000
Si      -2.71405526       0.00107514      -2.71377444       0.00000000
Si       0.00273672      -2.71415835      -2.71477196       0.00000000
Si      -0.00123804       2.71477737      -2.71446239       0.00000000
Si      -2.71548470       2.71419093      -0.00006879       0.00000000
Si       2.71606428       0.00030951      -2.71374005       0.00000000
Si       2.71484253       2.71511946       0.00113511       0.00000000
