10
Lattice="16.28999089631971 0.0 0.0 0.0 16.28999089631971 0.0 0.0 0.0 34.397273925272025" Properties=species:S:1:pos:R:3:initial_magmoms:R:1 pbc="T T T"
Si       1.34798121       1.35379674       1.36595091       0.00000000
Si       1.35527913      -1.35697981      -1.35766116       0.00000000
Si      -1.35824554       1.35915615      -1.35676683       0.00000000
Si      -1.35310767      -1.36027690       1.38053536       0.00000000
Si      -0.15780123       2.56805334       2.75608311       0.00000000
Si       2.71342530      -0.00027693      -2.71494395       0.00000000
Si       2.71215468       2.71648782      -0.00116951       0.00000000
Si      -0.00107514       2.71484253      -2.71549431       0.00000000
Si      -0.00104256      -2.71584057      -2.71470317       0.00000000
Si      -2.71740661       0.00043983      -2.71418721       0.00000000
