10
Lattice="16.28999089631971 0.0 0.0 0.0 16.28999089631971 0.0 0.0 0.0 34.397273925272025" Properties=species:S:1:pos:R:3:initial_magmoms:R:1 pbc="T T T"
Si       1.35310767       1.36027690      -1.38053536       0.00000000
Si      -1.36621648      -1.35716292      -1.37682045       0.00000000
Si      -1.39266046       1.42586044       1.35742038       0.00000000
Si       1.40049528      -1.29531026       1.49332408       0.00000000
Si      -0.17952069      -2.49197319       2.85363384       0.00000000
Si       2.45279670       0.36026638       2.87647364       0.00000000
Si       2.70108888       2.71407364      -0.01458445       0.00000000
Si      -2.71535959      -2.70975420       0.02060398       0.00000000
Si       2.71285026      -2.71749195       0.01496282       0.00000000
Si       2.70838680       0.00329710      -2.73819652       0.00000000
