10
Lattice="16.28999089631971 0.0 0.0 0.0 16.28999089631971 0.0 0.0 0.0 34.397273925272025" Properties=species:S:1:pos:R:3:initial_magmoms:R:1 pbc="T T T"
Si       0.76605354      -1.82824299      -1.25632673       0.00000000
Si       1.44845793       1.11829221       1.51065830       0.00000000
Si      -1.12285504      -1.38140829       1.59538571       0.00000000
Si      -1.17627158       1.49322285      -1.49621346       0.00000000
Si      -1.30287094      -3.15982017      -1.38837794       0.00000000
Si      -2.70388495       2.53031350       0.00144469       0.00000000
Si       2.46153303      -2.76964209       0.14071933       0.00000000
Si      -2.85709400      -2.41694730       0.40429378       0.00000000
Si       3.23770266       1.96949358       0.09297588       0.00000000
Si       0.02647125       2.46910788       2.96906569       0.00000000
