10
Lattice="16.28999089631971 0.0 0.0 0.0 16.28999089631971 0.0 0.0 0.0 34.397273925272025" Properties=species:S:1:pos:R:3:initial_magmoms:R:1 pbc="T T T"
Si      -1.35469269       1.35595516       1.36209841       0.00000000
Si       1.36109466      -1.35939589       1.36096330       0.00000000
Si      -1.34980569      -1.35257403      -1.38544041       0.00000000
Si       1.37829690       1.33578814      -1.37802780       0.00000000
Si      -2.70925180       2.71175557       0.00130710       0.00000000
Si      -2.71260754      -0.00172674       2.71889964       0.00000000
Si       0.00281817       2.71322167       2.71869326       0.00000000
Si       2.72051145       2.71219541       0.00068795       0.00000000
Si      -2.71430822      -2.71902810       0.00543477       0.00000000
Si       2.71811682      -2.71550946       0.00313015       0.00000000
