10
Lattice="16.28999089631971 0.0 0.0 0.0 16.28999089631971 0.0 0.0 0.0 34.397273925272025" Properties=species:S:1:pos:R:3:initial_magmoms:R:1 pbc="T T T"
Si      -1.37829690      -1.33578814       1.37802780       0.00000000
Si      -1.23904998       1.48747248      -1.35879283       0.00000000
Si       1.34221455       1.37640726       1.37871574       0.00000000
Si       1.37500632      -1.45301261      -1.48250270       0.00000000
Si       2.70598077      -2.69689814       0.02052830       0.00000000
Si      -2.72810259      -2.68836218      -0.00741262       0.00000000
Si       2.70060507       2.72989449       0.00982387       0.00000000
Si      -0.01720224      -2.69518404       2.73899110       0.00000000
Si      -2.71251306       2.72310156       0.03711812       0.00000000
Si       2.69874801       0.02018331       2.73971344       0.00000000
