10
Lattice="16.28999089631971 0.0 0.0 0.0 16.28999089631971 0.0 0.0 0.0 34.397273925272025" Properties=species:S:1:pos:R:3:initial_magmoms:R:1 pbc="T T T"
Si       1.35332433      -1.35277091      -1.35965620       0.00000000
Si      -1.36094805       1.36243556      -1.36017216       0.00000000
Si       1.35307998       1.37169316       1.36908106       0.00000000
Si      -1.35599589      -1.35863531       1.39419109       0.00000000
Si       2.71065600      -2.71161755       0.00072234       0.00000000
Si      -0.00360009      -2.71067273      -2.71618225       0.00000000
Si       2.70498708       2.72242412      -0.00096312       0.00000000
Si       2.71181259       0.00413863      -2.71662942       0.00000000
Si      -2.71524978      -2.71373525       0.00220143       0.00000000
Si      -2.71731861       0.00337618      -2.71690460       0.00000000
