10
Lattice="16.28999089631971 0.0 0.0 0.0 16.28999089631971 0.0 0.0 0.0 34.397273925272025" Properties=species:S:1:pos:R:3:initial_magmoms:R:1 pbc="T T T"
Si       1.10338686       1.57056777      -1.33922421       0.00000000
Si      -1.26138357       1.40859630       1.39845635       0.00000000
Si      -1.72408473      -1.16255214      -1.25797781       0.00000000
Si       1.82847105      -1.67138658       0.36756947       0.00000000
Si      -1.37994219      -3.02102448       1.17821048       0.00000000
Si       2.35620189       0.13812291      -2.69974035       0.00000000
Si      -0.56824407      -1.77073929       3.22381751       0.00000000
Si      -0.37817235      -2.56653511      -2.69227613       0.00000000
Si      -0.93100608       0.63079767       3.62372044       0.00000000
Si       2.08443582       3.27060846       0.17098894       0.00000000
