10
Lattice="16.28999089631971 0.0 0.0 0.0 16.28999089631971 0.0 0.0 0.0 34.397273925272025" Properties=species:S:1:pos:R:3:initial_magmoms:R:1 pbc="T T T"
Si      -1.07577531      -1.13548631       1.84510520       0.00000000
Si       2.39290326      -0.34831278      -0.33361935       0.00000000
Si      -0.36276201       2.40153696       0.39990293       0.00000000
Si      -0.81169812      -1.25028519      -2.04560702       0.00000000
Si      -3.08601018       0.21743892       2.00749482       0.00000000
Si      -2.53096101       2.38814658       1.23400289       0.00000000
Si      -1.53311706      -3.26939390       0.80135374       0.00000000
Si       0.56824407       1.77073929      -3.22381751       0.00000000
Si       2.39671512       0.09935271      -2.85624803       0.00000000
Si      -0.69313950       3.17933559      -1.82536116       0.00000000
