10
Lattice="16.28999089631971 0.0 0.0 0.0 16.28999089631971 0.0 0.0 0.0 34.397273925272025" Properties=species:S:1:pos:R:3:initial_magmoms:R:1 pbc="T T T"
Si      -0.20595447      -1.10185560      -1.97884188       0.00000000
Si      -2.08305117      -0.57019887       0.78370793       0.00000000
Si       1.14797259      -1.13143824       1.69527059       0.00000000
Si       0.68792670       2.26362582      -0.11719158       0.00000000
Si      -2.02103514       0.66979593       2.72350888       0.00000000
Si       3.29633037      -0.71125398       0.86715576       0.00000000
Si      -0.02808396      -0.21095550       3.55729926       0.00000000
Si      -0.76100364      -3.27256326      -1.20534995       0.00000000
Si       1.96224453      -1.08846522      -2.81294184       0.00000000
Si       3.35855817       0.18979479      -1.31191276       0.00000000
