10
Lattice="16.28999089631971 0.0 0.0 0.0 16.28999089631971 0.0 0.0 0.0 34.397273925272025" Properties=species:S:1:pos:R:3:initial_magmoms:R:1 pbc="T T T"
Si      -0.67994460       0.36372149       2.19275864       0.00000000
Si      -1.17340128       1.26416753      -1.56060519       0.00000000
Si      -0.38634993      -2.25296469      -0.48868234       0.00000000
Si       2.19331818       0.81648575      -0.12324550       0.00000000
Si       0.57554199       2.25323117       2.69912120       0.00000000
Si      -2.02334017      -2.83955130       1.19155663       0.00000000
Si       0.05136237       0.94796234      -3.59929836       0.00000000
Si       1.96033860       3.08908736      -0.69867782       0.00000000
Si       1.76280606      -3.29583420      -0.08131520       0.00000000
Si      -3.39327330       0.42967970      -1.59029005       0.00000000
