10
Lattice="16.28999089631971 0.0 0.0 0.0 16.28999089631971 0.0 0.0 0.0 34.397273925272025" Properties=species:S:1:pos:R:3:initial_magmoms:R:1 pbc="T T T"
Si      -1.83850569       1.37718918      -0.42167642       0.00000000
Si       0.96891291       0.27147285       2.13875489       0.00000000
Si       1.79934453       0.66736872      -1.52933805       0.00000000
Si      -1.55711223      -1.94090463      -0.14869950       0.00000000
Si      -2.09499174       0.79806339      -2.84279869       0.00000000
Si       2.24872047      -1.38463371      -2.56421501       0.00000000
Si      -3.27533256       0.96743052       1.46064666       0.00000000
Si       1.33700175       2.60213202       2.57824911       0.00000000
Si      -1.38443823       3.66285537       0.13187922       0.00000000
Si      -1.09921662      -3.38125014       1.67924145       0.00000000
