10
Lattice="16.28999089631971 0.0 0.0 0.0 16.28999089631971 0.0 0.0 0.0 34.397273925272025" Properties=species:S:1:pos:R:3:initial_magmoms:R:1 pbc="T T T"
Si      -0.84546729       1.25377614      -1.79258054       0.00000000
Si      -1.62738729      -0.61849872       1.57408893       0.00000000
Si       1.66591314       0.75453651       1.49377125       0.00000000
Si       1.33778367      -1.60943571      -1.14739051       0.00000000
Si       0.75007305      -0.64876554       3.23706046       0.00000000
Si      -0.29234034      -3.20683311      -1.68223402       0.00000000
Si       1.48216194       3.13116606       1.30953935       0.00000000
Si      -1.23763275      -2.85868323       2.03060980       0.00000000
Si       0.93830400       2.49160437      -2.62014501       0.00000000
Si       3.71161134      -0.13333365       0.77655329       0.00000000
