10
Lattice="16.28999089631971 0.0 0.0 0.0 16.28999089631971 0.0 0.0 0.0 34.397273925272025" Properties=species:S:1:pos:R:3:initial_magmoms:R:1 pbc="T T T"
Si      -1.69547949       0.94139910      -1.39704606       0.00000000
Si      -1.11216717      -1.62513927       1.36572530       0.00000000
Si       0.42595092       0.07102440      -2.36244049       0.00000000
Si       1.56802653       1.18592829       1.40134714       0.00000000
Si       2.11598955      -1.60498854      -1.67958543       0.00000000
Si      -2.46153303       2.76964209      -0.14071933       0.00000000
Si      -2.43333504      -0.20486304       2.83478898       0.00000000
Si       0.26539668       2.51656065       2.85013017       0.00000000
Si       2.78883171       2.78479179       0.14374889       0.00000000
Si      -1.80333558      -3.52139301       0.15477049       0.00000000
