10
Lattice="16.28999089631971 0.0 0.0 0.0 16.28999089631971 0.0 0.0 0.0 34.397273925272025" Properties=species:S:1:pos:R:3:initial_magmoms:R:1 pbc="T T T"
Si      -0.42595092      -0.07102440       2.36244049       0.00000000
Si       0.91584009       1.40330205      -1.74328921       0.00000000
Si       1.69003863      -1.67601294       0.68285506       0.00000000
Si      -2.12143041       0.87037470       0.96539443       0.00000000
Si      -2.37746034       0.03026682      -1.66297153       0.00000000
Si      -1.98770580      -2.20991769      -1.20645066       0.00000000
Si      -0.75007305       0.64876554      -3.23706046       0.00000000
Si       3.59238483      -0.31345218      -0.38862062       0.00000000
Si       2.33583939      -2.79055845      -1.22086313       0.00000000
Si       2.96153829       0.51543189      -2.46050717       0.00000000
