10
Lattice="16.28999089631971 0.0 0.0 0.0 16.28999089631971 0.0 0.0 0.0 34.397273925272025" Properties=species:S:1:pos:R:3:initial_magmoms:R:1 pbc="T T T"
Si       0.58336119      -2.24775936       0.13659165       0.00000000
Si       1.40970402       1.30624623       1.35955301       0.00000000
Si      -1.28813175       0.91237032      -1.79282132       0.00000000
Si      -2.43388890       0.30874437       0.29880929       0.00000000
Si      -1.48041891      -2.97566172       1.08052217       0.00000000
Si       1.68401133      -0.25477560       3.12667955       0.00000000
Si       0.32731497       2.17627299      -2.82711352       0.00000000
Si      -2.29441392       2.73637369      -0.38291067       0.00000000
Si       2.10900114      -2.27962260       1.89646036       0.00000000
Si      -3.15517752      -1.91661624      -0.42095407       0.00000000
