10
Lattice="16.28999089631971 0.0 0.0 0.0 16.28999089631971 0.0 0.0 0.0 34.397273925272025" Properties=species:S:1:pos:R:3:initial_magmoms:R:1 pbc="T T T"
Si       1.89324009       0.68820363      -1.30389819       0.00000000
Si      -1.86512355      -0.54561726      -1.42638695       0.00000000
Si       0.53572923      -2.09220615       1.09637932       0.00000000
Si      -0.54463986       1.59141897       1.77723934       0.00000000
Si       2.31822990      -1.33664337      -2.53411738       0.00000000
Si      -2.80660410       1.66024422      -1.96652765       0.00000000
Si       2.83405275      -1.82487096       1.82047674       0.00000000
Si      -3.35860704      -1.96151148      -0.21708132       0.00000000
Si      -2.64805353       0.90328050       2.75759659       0.00000000
Si      -1.26361530      -2.75957487       2.62571737       0.00000000
