10
Lattice="16.28999089631971 0.0 0.0 0.0 16.28999089631971 0.0 0.0 0.0 34.397273925272025" Properties=species:S:1:pos:R:3:initial_magmoms:R:1 pbc="T T T"
Si      -0.78235983       0.22354767       2.17198268       0.00000000
Si      -1.25548659      -1.88950968      -0.50636255       0.00000000
Si       0.20874006       1.75633893      -1.53577034       0.00000000
Si       2.16694467      -0.75207672      -0.56143262       0.00000000
Si       1.61777619      -1.43674542      -2.82236670       0.00000000
Si      -0.48720132      -3.29216827       1.26977608       0.00000000
Si      -0.57554199      -2.25323117      -2.69912120       0.00000000
Si       0.62538939       1.85396490       3.09190389       0.00000000
Si       3.50296902       1.10169270       0.19475747       0.00000000
Si      -3.01079111       0.96850566       1.98458623       0.00000000
