10
Lattice="16.28999089631971 0.0 0.0 0.0 16.28999089631971 0.0 0.0 0.0 34.397273925272025" Properties=species:S:1:pos:R:3:initial_magmoms:R:1 pbc="T T T"
Si       0.00260640      -1.59988977      -1.70018941       0.00000000
Si       1.45811790       1.77135572      -0.47433867       0.00000000
Si      -2.21892606       0.81438501      -0.01014720       0.00000000
Si       0.54646434      -0.96032808       2.22949495       0.00000000
Si      -1.78116489      -2.83771800      -0.87262493       0.00000000
Si      -3.41567091      -1.15222428      -0.55651381       0.00000000
Si       2.17697931      -2.50323543      -1.61398979       0.00000000
Si       1.41496569       3.03861347       1.65327150       0.00000000
Si      -2.37724857       2.18568536       1.93780591       0.00000000
Si       0.43521993       3.35447657      -1.84135590       0.00000000
