10
Lattice="16.28999089631971 0.0 0.0 0.0 16.28999089631971 0.0 0.0 0.0 34.397273925272025" Properties=species:S:1:pos:R:3:initial_magmoms:R:1 pbc="T T T"
Si      -1.35716877       1.35703845      -1.35745478       0.00000000
Si       1.35760860      -1.35702705      -1.35742038       0.00000000
Si      -1.35606105      -1.35734307       1.35872748       0.00000000
Si       1.35879777       1.35852084       1.35714520       0.00000000
Si       0.00140094       2.70876636       2.71800531       0.00000000
Si       0.00110772      -2.71329283      -2.71425601       0.00000000
Si      -2.71327869       0.00055386      -2.71435920       0.00000000
Si      -2.71458189      -2.71496234       0.00034397       0.00000000
Si       2.71510317      -0.00112401      -2.71459998       0.00000000
Si      -2.71502172       2.71469592      -0.00024078       0.00000000
