10
Lattice="16.28999089631971 0.0 0.0 0.0 16.28999089631971 0.0 0.0 0.0 34.397273925272025" Properties=species:S:1:pos:R:3:initial_magmoms:R:1 pbc="T T T"
Si       1.80550215       0.45325296      -1.58939572       0.00000000
Si      -1.82847105       1.67138658      -0.36756947       0.00000000
Si      -0.00381186      -0.44766549       2.52262868       0.00000000
Si      -0.58668435      -1.90973860      -1.63356185       0.00000000
Si      -3.20841324      -1.34963790       0.81064101       0.00000000
Si       0.52773084       1.80950949      -3.06730982       0.00000000
Si       2.71713942       1.81335393       1.65485377       0.00000000
Si      -2.39671512      -0.09935271       2.85624803       0.00000000
Si      -0.72508419       3.24195435      -1.70679369       0.00000000
Si       0.49570470      -2.77976537       2.55310469       0.00000000
