10
Lattice="16.28999089631971 0.0 0.0 0.0 16.28999089631971 0.0 0.0 0.0 34.397273925272025" Properties=species:S:1:pos:R:3:initial_magmoms:R:1 pbc="T T T"
Si       2.25935784       0.04974966      -0.57526033       0.00000000
Si       0.28341342      -0.20409741       2.32164530       0.00000000
Si      -0.70905483       2.23218612      -0.34672471       0.00000000
Si      -1.45808532      -1.26736689      -1.42587099       0.00000000
Si      -3.30452424      -0.75342227       0.16410949       0.00000000
Si      -0.80980848       0.09088191      -3.37399609       0.00000000
Si      -0.29743911       2.28607344      -2.64752526       0.00000000
Si       3.07460718      -1.83111003       0.57065109       0.00000000
Si       1.72571373      -2.04848069       2.51636838       0.00000000
Si       1.22891760       1.82146635       3.06290697       0.00000000
