10
Lattice="16.28999089631971 0.0 0.0 0.0 16.28999089631971 0.0 0.0 0.0 34.397273925272025" Properties=species:S:1:pos:R:3:initial_magmoms:R:1 pbc="T T T"
Si       1.36559070       1.34392500       1.35043773       0.00000000
Si       1.35470898      -1.35609363      -1.35511576       0.00000000
Si      -1.35741312       1.35549090      -1.35373987       0.00000000
Si      -1.35558864      -1.36441782       1.36257997       0.00000000
Si      -0.04595409       2.57237019       2.71687020       0.00000000
Si       0.12136050      -2.64018546       2.72681102       0.00000000
Si       2.71355562      -0.00027693      -2.71232976       0.00000000
Si       2.71295289       2.71375110       0.00612272       0.00000000
Si      -0.00156384       2.71533123      -2.71202018       0.00000000
Si      -0.00190593      -2.71518462      -2.71253614       0.00000000
