10
Lattice="16.28999089631971 0.0 0.0 0.0 16.28999089631971 0.0 0.0 0.0 34.397273925272025" Properties=species:S:1:pos:R:3:initial_magmoms:R:1 pbc="T T T"
Si      -1.34736219      -1.36982610       1.34431501       0.00000000
Si       1.35811359      -1.35418770      -1.36127288       0.00000000
Si      -1.35456237       1.35826020      -1.36134167       0.00000000
Si       1.38409614       1.36640520       1.37131689       0.00000000
Si      -2.71295289      -2.71375110      -0.00612272       0.00000000
Si       2.71285515      -2.71471221       0.00020638       0.00000000
Si       2.71453302       2.71557558      -0.00292377       0.00000000
Si      -2.71557558       2.71564074      -0.00072234       0.00000000
Si       0.00060273      -2.71402803      -2.71845247       0.00000000
Si      -2.71451673       0.00158013      -2.71814290       0.00000000
