10
Lattice="16.28999089631971 0.0 0.0 0.0 16.28999089631971 0.0 0.0 0.0 34.397273925272025" Properties=species:S:1:pos:R:3:initial_magmoms:R:1 pbc="T T T"
Si      -1.53764568       1.61259597       0.74033294       0.00000000
Si       1.30087053       1.32954093      -1.51045394       0.00000000
Si      -1.18794825      -1.55517372      -1.41379754       0.00000000
Si       1.11057075      -1.27470879       1.73279804       0.00000000
Si      -2.46114207       0.00679293       2.16448407       0.00000000
Si      -3.06007650       1.72838529      -1.14601462       0.00000000
Si       3.19930713      -0.18502182       1.85136551       0.00000000
Si      -3.42816534      -0.60227388      -1.58550883       0.00000000
Si       2.95445214      -0.06125040      -2.44822734       0.00000000
Si       1.60966377      -3.40329051       0.88597108       0.00000000
