10
Lattice="16.28999089631971 0.0 0.0 0.0 16.28999089631971 0.0 0.0 0.0 34.397273925272025" Properties=species:S:1:pos:R:3:initial_magmoms:R:1 pbc="T T T"
Si       1.34684091       1.36036717       1.36014808       0.00000000
Si       1.34710155      -1.32574536      -1.39482056       0.00000000
Si      -1.36616085      -1.35439947       1.36062965       0.00000000
Si      -1.33097445       1.24388552      -1.50303100       0.00000000
Si      -0.21018987      -2.44542222      -2.71253840       0.00000000
Si      -2.22285195      -0.49107834      -2.90403073       0.00000000
Si       2.60498277       0.08961408      -2.77848061       0.00000000
Si      -2.70598077       2.69689814      -0.02052830       0.00000000
Si       2.70764235      -2.69910639      -0.00371835       0.00000000
Si       2.70715365       0.00323476       2.71928833       0.00000000
