10
Lattice="16.28999089631971 0.0 0.0 0.0 16.28999089631971 0.0 0.0 0.0 34.397273925272025" Properties=species:S:1:pos:R:3:initial_magmoms:R:1 pbc="T T T"
Si      -1.35558864       1.35330000       1.35779875       0.00000000
Si       1.35648459       1.35605012      -1.35597569       0.00000000
Si      -1.35786924      -1.35808101      -1.35604449       0.00000000
Si       1.35584928      -1.35927018       1.35958741       0.00000000
Si       2.71446786      -0.00068418      -2.71308650       0.00000000
Si      -0.00091224       2.71448645      -2.71332728       0.00000000
Si      -2.71458189       2.71417042       0.00282058       0.00000000
Si      -2.71609686      -0.00083079      -2.71346487       0.00000000
Si       2.71531494       2.71431703       0.00189185       0.00000000
Si       2.71520091      -2.71456560      -0.00027518       0.00000000
