10
Lattice="16.28999089631971 0.0 0.0 0.0 16.28999089631971 0.0 0.0 0.0 34.397273925272025" Properties=species:S:1:pos:R:3:initial_magmoms:R:1 pbc="T T T"
Si      -1.40970402      -1.30624623      -1.35955301       0.00000000
Si       0.27430731      -1.56102183       1.76712654       0.00000000
Si       2.29565196      -0.30594249      -0.56287731       0.00000000
Si      -0.49951656       2.33209988      -0.03047600       0.00000000
Si       0.69929712      -3.58586883       0.53690735       0.00000000
Si       2.41241868      -0.99903312       2.62891632       0.00000000
Si       3.29942547       0.82573263       1.47313287       0.00000000
Si      -0.49570470       2.77976537      -2.55310469       0.00000000
Si      -0.82634283      -3.55400559      -1.22296136       0.00000000
Si       2.68542279      -2.75700105      -0.34022363       0.00000000
