10
Lattice="16.28999089631971 0.0 0.0 0.0 16.28999089631971 0.0 0.0 0.0 34.397273925272025" Properties=species:S:1:pos:R:3:initial_magmoms:R:1 pbc="T T T"
Si       1.33371428       1.35551371      -1.36415537       0.00000000
Si      -1.35759231       1.35378697       1.35484058       0.00000000
Si       1.35860229      -1.35975955       1.35477179       0.00000000
Si      -1.35845568      -1.35557380      -1.37320186       0.00000000
Si       0.08728182      -2.61896026      -2.77208129       0.00000000
Si       2.62597148       0.01678359      -2.78327417       0.00000000
Si      -2.71349046       2.71022269      -0.00595073       0.00000000
Si       0.00004887       2.71203088       2.71205458       0.00000000
Si       2.71436427      -0.00223336       2.71229536       0.00000000
Si      -2.71508688      -0.00211607       2.71202018       0.00000000
