10
Lattice="16.28999089631971 0.0 0.0 0.0 16.28999089631971 0.0 0.0 0.0 34.397273925272025" Properties=species:S:1:pos:R:3:initial_magmoms:R:1 pbc="T T T"
Si      -1.35301482       1.35602847      -1.36306154       0.00000000
Si       1.36202319      -1.35968883      -1.36240799       0.00000000
Si       1.35992178       1.37971413       1.36068812       0.00000000
Si      -1.37114559      -1.36409365       1.37688925       0.00000000
Si      -2.71041165       2.70627399      -0.00220143       0.00000000
Si       2.71457577       2.71275741      -0.00794577       0.00000000
Si      -2.70888039      -2.72070587      -0.00650109       0.00000000
Si      -2.71181259      -0.00249237      -2.72020674       0.00000000
Si       0.00366525       2.71267596      -2.72041312       0.00000000
Si       2.71639789      -2.71991591      -0.00182306       0.00000000
