10
Lattice="16.28999089631971 0.0 0.0 0.0 16.28999089631971 0.0 0.0 0.0 34.397273925272025" Properties=species:S:1:pos:R:3:initial_magmoms:R:1 pbc="T T T"
Si      -0.88700679      -1.82476575       1.15578345       0.00000000
Si       2.34802431      -0.22462151      -0.29213621       0.00000000
Si      -0.75808773       1.95048152       1.16871683       0.00000000
Si      -1.00377351      -1.13167512      -2.03601018       0.00000000
Si      -0.51823377      -1.26090369       3.37396169       0.00000000
Si       0.38830473      -3.62163420       0.36027725       0.00000000
Si      -3.29942547      -0.82573263      -1.47313287       0.00000000
Si      -0.99427644       1.09260125       3.46311947       0.00000000
Si       3.24285030      -0.60080031       1.88669153       0.00000000
Si      -3.02511816      -2.38675446       0.29399366       0.00000000
