10
Lattice="16.28999089631971 0.0 0.0 0.0 16.28999089631971 0.0 0.0 0.0 34.397273925272025" Properties=species:S:1:pos:R:3:initial_magmoms:R:1 pbc="T T T"
Si      -1.03636980      -2.07747706       0.39876782       0.00000000
Si      -0.88231527       1.19896029      -1.82622109       0.00000000
Si       2.24822267      -0.70528858      -0.11020893       0.00000000
Si      -0.53310654       1.27008243       1.91658278       0.00000000
Si       2.63608757       0.93936285      -1.94657722       0.00000000
Si       0.18310565      -0.29901924       3.53741763       0.00000000
Si      -0.14154381      -2.45365586       2.57759556       0.00000000
Si      -2.70615996       1.98316089       1.52968202       0.00000000
Si      -2.30795091       2.89222434      -0.74480459       0.00000000
Si      -3.38439411      -1.85285555       0.69090403       0.00000000
