10
Lattice="16.28999089631971 0.0 0.0 0.0 16.28999089631971 0.0 0.0 0.0 34.397273925272025" Properties=species:S:1:pos:R:3:initial_magmoms:R:1 pbc="T T T"
Si       0.46661076      -0.37875879      -2.33392513       0.00000000
Si      -1.12376565       2.12405310       0.25498713       0.00000000
Si       1.76926083      -0.08729811       1.64646083       0.00000000
Si      -1.43000136      -2.04705027       0.40045329       0.00000000
Si      -2.92597722       1.08364338       1.49727977       0.00000000
Si      -0.00436572      -3.74031432      -0.68096321       0.00000000
Si       0.23252346       3.37636314       1.75945594       0.00000000
Si       3.53918888      -1.42234506       0.42353387       0.00000000
Si       1.25769456      -1.51304778       3.47870145       0.00000000
Si       2.23935602       2.18070972       2.57460299       0.00000000
