10
Lattice="16.28999089631971 0.0 0.0 0.0 16.28999089631971 0.0 0.0 0.0 34.397273925272025" Properties=species:S:1:pos:R:3:initial_magmoms:R:1 pbc="T T T"
Si      -2.26145925      -0.28401615       0.42611367       0.00000000
Si       0.53284590       0.95123826      -2.07302167       0.00000000
Si       0.29209599       1.25278245       1.97629648       0.00000000
Si       0.79415379      -2.23904421       0.24332645       0.00000000
Si       2.66550012       1.67930352      -1.29719072       0.00000000
Si       1.37033109      -0.49751289       3.11653235       0.00000000
Si       0.29533770      -2.52033993       2.49837859       0.00000000
Si      -0.69898761      -3.27310083      -1.24064157       0.00000000
Si      -2.77382862      -2.47920768      -0.30035716       0.00000000
Si      -2.67307497      -0.33790347       2.72691421       0.00000000
