10
Lattice="16.28999089631971 0.0 0.0 0.0 16.28999089631971 0.0 0.0 0.0 34.397273925272025" Properties=species:S:1:pos:R:3:initial_magmoms:R:1 pbc="T T T"
Si      -0.25290225       2.31304968      -0.11034652       0.00000000
Si       1.39392783      -0.76592322      -1.76403078       0.00000000
Si      -2.13265422      -0.72806526      -0.77583095       0.00000000
Si       1.21811572      -0.35575731       2.15141310       0.00000000
Si      -2.66550012      -1.67930352       1.29719072       0.00000000
Si       3.31987661      -1.27052226      -0.58000716       0.00000000
Si       3.38189264      -0.03052746       1.35979379       0.00000000
Si       0.48107628      -2.92206762      -2.18089158       0.00000000
Si       1.97915748       3.14235729      -0.31016039       0.00000000
Si      -1.69197714      -2.20898916      -2.56779233       0.00000000
