10
Lattice="16.28999089631971 0.0 0.0 0.0 16.28999089631971 0.0 0.0 0.0 34.397273925272025" Properties=species:S:1:pos:R:3:initial_magmoms:R:1 pbc="T T T"
Si       0.58864471      -2.25209250      -0.23225052       0.00000000
Si       1.18247385       0.44155674       1.97433583       0.00000000
Si      -2.26800783      -0.03614751       0.67411815       0.00000000
Si       0.24527692       1.78491159      -1.58819182       0.00000000
Si       0.05230719       3.46838535       0.08836665       0.00000000
Si      -0.68802444      -2.71870489      -2.14824855       0.00000000
Si       1.26293342       2.75200002       2.05155776       0.00000000
Si      -0.19777689      -0.41606289       3.67339013       0.00000000
Si      -2.26007460       0.41194152       2.95403954       0.00000000
Si      -3.34624293       1.71414783      -0.46611772       0.00000000
