10
Lattice="16.28999089631971 0.0 0.0 0.0 16.28999089631971 0.0 0.0 0.0 34.397273925272025" Properties=species:S:1:pos:R:3:initial_magmoms:R:1 pbc="T T T"
Si       1.35674523      -1.35710820      -1.35762676       0.00000000
Si       1.35637056       1.35905937       1.35673243       0.00000000
Si      -1.35964159      -1.35655434       1.35748917       0.00000000
Si      -1.35921805       1.35858045      -1.35721400       0.00000000
Si       2.71371852      -2.71404891       0.00072234       0.00000000
Si      -0.00237834      -2.71439100      -2.71487516       0.00000000
Si       2.71448415       0.00091130      -2.71515033       0.00000000
Si      -2.71498004       0.00105426      -2.71473757       0.00000000
Si       2.71448415       2.71562704      -0.00017199       0.00000000
Si      -0.00130320       2.71626235      -2.71401522       0.00000000
