10
Lattice="16.28999089631971 0.0 0.0 0.0 16.28999089631971 0.0 0.0 0.0 34.397273925272025" Properties=species:S:1:pos:R:3:initial_magmoms:R:1 pbc="T T T"
Si       1.35764753      -1.35268902       1.36065373       0.00000000
Si      -1.35065277      -1.36094805      -1.36114561       0.00000000
Si      -1.35720135       1.36225125       1.35903705       0.00000000
Si       1.37345877       1.37411037      -1.36569981       0.00000000
Si      -2.60672580       0.10722078      -2.67216060       0.00000000
Si       2.71037648      -2.70987408      -0.00127270       0.00000000
Si      -2.71292031      -2.71274112       0.00240781       0.00000000
Si      -0.00099369      -2.71094922       2.71731736       0.00000000
Si       2.71188168       2.71668330       0.00416207       0.00000000
Si       2.71433821       0.00343719       2.71721417       0.00000000
