10
Lattice="16.28999089631971 0.0 0.0 0.0 16.28999089631971 0.0 0.0 0.0 34.397273925272025" Properties=species:S:1:pos:R:3:initial_magmoms:R:1 pbc="T T T"
Si      -0.98389971      -1.59549147      -1.44273740       0.00000000
Si      -1.44573750       1.26338646       1.39887944       0.00000000
Si       1.28695887      -1.44314739       1.40104991       0.00000000
Si       1.25952811       1.32708523      -1.58758440       0.00000000
Si       2.53868966       2.63574385      -0.01119288       0.00000000
Si      -2.77190640       2.60000196      -0.05216006       0.00000000
Si      -0.08728182       2.61896026       2.77208129       0.00000000
Si       2.62538178      -0.10057446       2.77091179       0.00000000
Si      -2.69322570      -2.71003698       0.09458912       0.00000000
Si       2.84055802      -2.58463656       0.00635662       0.00000000
