10
Lattice="16.28999089631971 0.0 0.0 0.0 16.28999089631971 0.0 0.0 0.0 34.397273925272025" Properties=species:S:1:pos:R:3:initial_magmoms:R:1 pbc="T T T"
Si       2.17718198      -0.93437811      -0.03054480       0.00000000
Si       0.32464946       2.15463662       0.95982207       0.00000000
Si      -0.89482599       0.37617880      -2.17882774       0.00000000
Si      -1.45701018      -1.24515873       1.45170336       0.00000000
Si       1.30568978      -3.02928840      -0.53068144       0.00000000
Si       0.14154381       2.45365586      -2.57759556       0.00000000
Si      -0.63936621      -0.55110699       3.50147246       0.00000000
Si      -0.58782465       1.78643212       3.11123517       0.00000000
Si      -0.56480688      -3.12709356      -1.96656204       0.00000000
Si       2.98744658      -0.52108452      -2.22842864       0.00000000
