10
Lattice="16.28999089631971 0.0 0.0 0.0 16.28999089631971 0.0 0.0 0.0 34.397273925272025" Properties=species:S:1:pos:R:3:initial_magmoms:R:1 pbc="T T T"
Si       1.35571896      -1.35616042      -1.35934663       0.00000000
Si       1.35053874       1.35775521       1.36601970       0.00000000
Si      -1.35748643       1.35974259      -1.35845230       0.00000000
Si      -1.35616531      -1.35994947       1.38442225       0.00000000
Si      -0.17067033       2.56111380       2.77066757       0.00000000
Si       2.71256193       2.71639008      -0.00233902       0.00000000
Si       2.71383255       0.00040725      -2.71625105       0.00000000
Si      -0.00065160      -2.71521979      -2.71607906       0.00000000
Si      -0.00068418       2.71547784      -2.71690460       0.00000000
Si      -2.71691366       0.00097740      -2.71573509       0.00000000
