10
Lattice="16.28999089631971 0.0 0.0 0.0 16.28999089631971 0.0 0.0 0.0 34.397273925272025" Properties=species:S:1:pos:R:3:initial_magmoms:R:1 pbc="T T T"
Si       0.67774382       1.18210014      -1.85442687       0.00000000
Si       0.86727145       0.82536543       1.99421747       0.00000000
Si       0.47857251      -2.29043916      -0.11402703       0.00000000
Si      -2.26023654       0.61237368       0.16407509       0.00000000
Si      -2.70123942      -0.20984778       2.28920865       0.00000000
Si      -0.69750426      -0.04455315       3.48045571       0.00000000
Si      -1.75348722      -3.11974677       0.08578685       0.00000000
Si       0.87500432      -2.50496217      -2.47199587       0.00000000
Si      -2.08495614       2.96622981       0.12795793       0.00000000
Si      -1.19275284       1.08429498      -3.29030747       0.00000000
