10
Lattice="16.28999089631971 0.0 0.0 0.0 16.28999089631971 0.0 0.0 0.0 34.397273925272025" Properties=species:S:1:pos:R:3:initial_magmoms:R:1 pbc="T T T"
Si      -0.47857251       2.29043916       0.11402703       0.00000000
Si      -2.23205973      -0.82930761       0.19981388       0.00000000
Si       1.78137992      -0.83882097       1.37313994       0.00000000
Si       0.39643181      -0.21452301      -2.35796884       0.00000000
Si      -1.61040075       0.98113041      -3.17311590       0.00000000
Si      -1.97915748      -3.14235729       0.31016039       0.00000000
Si      -3.31669680       0.01573614      -1.75677295       0.00000000
Si       0.38869895       3.11580459       2.10824449       0.00000000
Si       1.40273516      -3.17288475       1.66995419       0.00000000
Si       0.19917131       3.47253930      -1.74039984       0.00000000
