10
Lattice="16.28999089631971 0.0 0.0 0.0 16.28999089631971 0.0 0.0 0.0 34.397273925272025" Properties=species:S:1:pos:R:3:initial_magmoms:R:1 pbc="T T T"
Si       1.34980569       1.35257403       1.38544041       0.00000000
Si      -1.36450253      -1.36645407       1.39087519       0.00000000
Si      -1.45119465       1.36986424      -1.39122948       0.00000000
Si       1.42198668      -1.35081567      -1.45840739       0.00000000
Si      -2.70292544      -2.70902700       0.02101331       0.00000000
Si       2.72810259       2.68836218       0.00741262       0.00000000
Si       2.70045846      -2.72218932       0.02178381       0.00000000
Si      -2.74345184       2.70859436       0.02788933       0.00000000
Si      -0.00488700       2.70852920       2.74753883       0.00000000
Si       2.71090035      -0.00682186       2.74640372       0.00000000
