10
Lattice="16.28999089631971 0.0 0.0 0.0 16.28999089631971 0.0 0.0 0.0 34.397273925272025" Properties=species:S:1:pos:R:3:initial_magmoms:R:1 pbc="T T T"
Si      -1.73423896      -1.03553901      -1.19109192       0.00000000
Si      -1.55359915       1.14148917       1.39469329       0.00000000
Si       1.12285504       1.38140829      -1.59538571       0.00000000
Si       1.15105303      -1.59309684       1.38012259       0.00000000
Si       1.88890858      -0.44683470      -2.85171244       0.00000000
Si      -0.18001590      -1.77841188      -2.98376365       0.00000000
Si       2.57131297       2.49970050      -0.08472741       0.00000000
Si      -0.21517624       2.48406210       2.76455517       0.00000000
Si       2.50660909      -0.23095962       2.76218175       0.00000000
Si      -2.84055802       2.58463656      -0.00635662       0.00000000
