10
Lattice="16.28999089631971 0.0 0.0 0.0 16.28999089631971 0.0 0.0 0.0 34.397273925272025" Properties=species:S:1:pos:R:3:initial_magmoms:R:1 pbc="T T T"
Si      -1.36122728      -1.33819092      -1.37382789       0.00000000
Si       1.36297290       1.36529748      -1.37062894       0.00000000
Si      -1.28624960       1.32453990       1.52579513       0.00000000
Si       0.78246246      -1.88849970       1.27545163       0.00000000
Si      -2.17580873      -0.40032675       2.94994626       0.00000000
Si      -0.11862052      -1.64041929       3.40663912       0.00000000
Si       2.70160365      -2.70343953       0.00512520       0.00000000
Si      -2.71285745      -2.71003698       0.00154788       0.00000000
Si      -2.70538034       2.72824920       0.02768982       0.00000000
Si       0.00345511      -2.70461241      -2.73007876       0.00000000
