10
Lattice="16.28999089631971 0.0 0.0 0.0 16.28999089631971 0.0 0.0 0.0 34.397273925272025" Properties=species:S:1:pos:R:3:initial_magmoms:R:1 pbc="T T T"
Si      -0.55675799       0.89454906      -2.08653980       0.00000000
Si       0.93123414      -2.19237336      -0.15643889       0.00000000
Si       0.99546561       1.23764904       1.79959758       0.00000000
Si      -2.41444583       0.26042823       0.38249790       0.00000000
Si       0.77959053      -2.59385670       2.24552409       0.00000000
Si      -2.55678785      -1.36836000       2.06146418       0.00000000
Si       0.39778551       3.50710083       1.34022173       0.00000000
Si       3.19085262      -1.68906123      -1.11230527       0.00000000
Si      -0.68629118      -1.27055484       3.49734478       0.00000000
Si      -1.66416620      -0.70776792      -3.41520404       0.00000000
