10
Lattice="10.86 0.0 0.0 0.0 10.86 0.0 0.0 0.0 10.86" Properties=species:S:1:pos:R:3:initial_magmoms:R:1 pbc="T T T"
Si      -1.36894644       1.35452436      -1.18584684       0.00000000
Si       1.27151052      -1.42447362      -1.32431184       0.00000000
Si       1.34605356       1.35452436       1.52915316       0.00000000
Si      -1.36894644      -1.36047564       1.52915316       0.00000000
Si       2.63046576      -2.46075654       0.07237104       0.00000000
Si       0.02533638      -2.68868622      -2.52225672       0.00000000
Si      -2.72644644      -0.00297564      -2.54334684       0.00000000
Si       2.56589220       2.70726768       0.19739136       0.00000000
Si       0.06627858       2.77666308      -2.64073932       0.00000000
Si      -2.72644644       2.71202436       0.17165316       0.00000000
