10
Lattice="10.86 0.0 0.0 0.0 10.86 0.0 0.0 0.0 10.86" Properties=species:S:1:pos:R:3:initial_magmoms:R:1 pbc="T T T"
Si      -1.21983864      -1.35274332       1.33176180       0.00000000
Si      -1.21983864       1.36225668      -1.38323820       0.00000000
Si       1.49516136       1.36225668       1.33176180       0.00000000
Si      -2.57733864       0.00475668       2.68926180       0.00000000
Si      -2.56589220      -2.70726768      -0.19739136       0.00000000
Si      -2.57733864       2.71975668      -0.02573820       0.00000000
Si      -2.49961362       0.06939540      -2.83813068       0.00000000
Si       2.72817318      -2.66921424      -0.11749434       0.00000000
Si       0.13766136      -2.71024332       2.68926180       0.00000000
Si       0.13766136       2.71975668       2.68926180       0.00000000
