10
Lattice="10.86 0.0 0.0 0.0 10.86 0.0 0.0 0.0 10.86" Properties=species:S:1:pos:R:3:initial_magmoms:R:1 pbc="T T T"
Si      -1.11137982       1.70479194      -1.11615822       0.00000000
Si       1.48490952      -1.42912170      -1.20670890       0.00000000
Si      -1.23009048      -1.42912170       1.50829110       0.00000000
Si       1.48490952       1.28587830       1.50829110       0.00000000
Si      -2.50161186       0.09650196       2.72960670       0.00000000
Si       0.12740952      -2.78662170      -2.56420890       0.00000000
Si      -2.58759048      -2.78662170       0.15079110       0.00000000
Si       2.84240952      -0.07162170      -2.56420890       0.00000000
Si      -3.28569300       0.66950814      -1.85292234       0.00000000
Si       0.16572360       2.83425366      -2.61479478       0.00000000
