10
Lattice="10.86 0.0 0.0 0.0 10.86 0.0 0.0 0.0 10.86" Properties=species:S:1:pos:R:3:initial_magmoms:R:1 pbc="T T T"
Si       1.41902190       1.50257874       0.85542048       0.00000000
Si      -1.34314308      -1.22546412       1.33534560       0.00000000
Si       1.37185692      -1.22546412      -1.37965440       0.00000000
Si      -1.34314308       1.48953588      -1.37965440       0.00000000
Si       0.01435692      -2.58296412       2.69284560       0.00000000
Si      -2.70064308      -2.58296412      -0.02215440       0.00000000
Si       2.72935692      -2.58296412      -0.02215440       0.00000000
Si       0.01435692      -2.58296412      -2.73715440       0.00000000
Si       2.66998530       0.33214224       2.69508276       0.00000000
Si      -2.70064308       0.13203588       2.69284560       0.00000000
