10
Lattice="10.86 0.0 0.0 0.0 10.86 0.0 0.0 0.0 10.86" Properties=species:S:1:pos:R:3:initial_magmoms:R:1 pbc="T T T"
Si       1.33000248      -1.19997570      -1.15405962       0.00000000
Si      -1.38499752      -1.19997570       1.56094038       0.00000000
Si       1.33000248       1.51502430       1.56094038       0.00000000
Si      -0.02749752      -2.55747570      -2.51155962       0.00000000
Si       2.68750248       0.15752430      -2.51155962       0.00000000
Si       2.68750248      -2.55747570       0.20344038       0.00000000
Si      -2.74249752      -2.55747570       0.20344038       0.00000000
Si      -2.73271266       0.13020054      -2.57456934       0.00000000
Si       0.10720992       2.93958480      -2.43533328       0.00000000
Si      -0.02749752      -2.55747570       2.91844038       0.00000000
