10
Lattice="10.86 0.0 0.0 0.0 10.86 0.0 0.0 0.0 10.86" Properties=species:S:1:pos:R:3:initial_magmoms:R:1 pbc="T T T"
Si      -1.37185692       1.22546412       1.37965440       0.00000000
Si      -1.35750000      -1.35750000      -1.35750000       0.00000000
Si       1.35750000      -1.35750000       1.35750000       0.00000000
Si       1.36728486       1.33017624      -1.42050972       0.00000000
Si       0.04716498       2.72804286       2.23507488       0.00000000
Si       2.71500000      -2.71500000       0.00000000       0.00000000
Si       0.00000000      -2.71500000      -2.71500000       0.00000000
Si      -2.71500000      -2.71500000       0.00000000       0.00000000
Si      -2.71500000       2.71500000       0.00000000       0.00000000
Si      -2.71500000       0.00000000      -2.71500000       0.00000000
