10
Lattice="10.86 0.0 0.0 0.0 10.86 0.0 0.0 0.0 10.86" Properties=species:S:1:pos:R:3:initial_magmoms:R:1 pbc="T T T"
Si      -1.19972592       1.35811902      -1.35489360       0.00000000
Si       1.51527408      -1.35688098      -1.35489360       0.00000000
Si       1.51527408       1.35811902       1.36010640       0.00000000
Si      -2.53624440       2.72345994      -0.06362874       0.00000000
Si      -2.55722592       0.00061902      -2.71239360       0.00000000
Si      -2.43098928       0.15053046       2.85454014       0.00000000
Si      -2.56549038      -2.78465604      -0.08500122       0.00000000
Si       0.31530924       2.60726880       2.77621782       0.00000000
Si       0.15777408      -2.71438098      -2.71239360       0.00000000
Si       0.15777408       2.71561902      -2.71239360       0.00000000
