10
Lattice="16.28999089631971 0.0 0.0 0.0 16.28999089631971 0.0 0.0 0.0 34.3005442915855" Properties=species:S:1:pos:R:3:initial_magmoms:R:1 pbc="T T T"
Si      -1.08432267      -1.40454009       1.70021860       0.00000000
Si      -2.16673942       1.18856727      -0.82290482       0.00000000
Si       1.57807746       1.36555812       1.64238099       0.00000000
Si       0.26345817      -1.22596911      -2.80307635       0.00000000
Si       1.50926850       2.00935521      -2.24071861       0.00000000
Si      -2.57211674      -2.61412146       0.21177168       0.00000000
Si      -3.75548750      -0.71939898      -0.90659819       0.00000000
Si      -2.40022648       0.01047447       3.24566479       0.00000000
Si       0.61856388       0.68787783      -4.05021053       0.00000000
Si       3.27526740       2.60408682       0.45925024       0.00000000
