10
Lattice="16.28999089631971 0.0 0.0 0.0 16.28999089631971 0.0 0.0 0.0 34.3005442915855" Properties=species:S:1:pos:R:3:initial_magmoms:R:1 pbc="T T T"
Si       1.23903369      -1.41074099       1.40888878       0.00000000
Si      -1.24033689      -1.52776321      -1.39388370       0.00000000
Si      -1.49214771       1.31002714       1.39551842       0.00000000
Si       1.78460208       0.94807963      -1.43830293       0.00000000
Si      -0.93617001       0.68058154      -3.04027644       0.00000000
Si       2.63889855       2.65416391       0.01478354       0.00000000
Si       2.58084099      -0.05252222       2.78081871       0.00000000
Si      -0.13615182       2.67079600       2.78078441       0.00000000
Si       2.84680782      -2.62761514      -0.05946689       0.00000000
Si      -3.00035736       2.48305375      -0.11824433       0.00000000
