10
Lattice="16.28999089631971 0.0 0.0 0.0 16.28999089631971 0.0 0.0 0.0 34.3005442915855" Properties=species:S:1:pos:R:3:initial_magmoms:R:1 pbc="T T T"
Si       1.31173596      -1.38510938      -1.53299508       0.00000000
Si      -1.38868992       1.32141222      -1.52287642       0.00000000
Si      -1.57778424      -1.51005857       1.17500010       0.00000000
Si       1.69034814       1.33292925       1.48459699       0.00000000
Si       2.64070674      -2.81084669      -0.20659229       0.00000000
Si       2.80906389       2.74289391      -0.08369337       0.00000000
Si      -2.91128364       2.65253328      -0.14738952       0.00000000
Si      -0.03300354       2.67514380      -2.91143183       0.00000000
Si       2.68192044      -0.04129515      -2.90992260       0.00000000
Si      -2.74704786      -0.04323366      -2.91067721       0.00000000
