10
Lattice="16.28999089631971 0.0 0.0 0.0 16.28999089631971 0.0 0.0 0.0 34.3005442915855" Properties=species:S:1:pos:R:3:initial_magmoms:R:1 pbc="T T T"
Si       0.48506733      -2.22605293       0.38461222       0.00000000
Si      -1.91829411       0.54382536       1.28507061       0.00000000
Si       1.86689916       1.29686319       0.68570256       0.00000000
Si      -0.52473348       0.51025167      -2.28071307       0.00000000
Si      -2.64769515       2.17658835      -0.30836207       0.00000000
Si       1.13311611      -2.37190382       2.59164767       0.00000000
Si      -1.18438074       2.79663462      -2.12831566       0.00000000
Si       2.50512507       2.48082039      -1.16361231       0.00000000
Si      -1.32092352      -3.45604472      -0.51385674       0.00000000
Si       2.41619796      -2.73598532      -0.84032950       0.00000000
