10
Lattice="16.28999089631971 0.0 0.0 0.0 16.28999089631971 0.0 0.0 0.0 34.3005442915855" Properties=species:S:1:pos:R:3:initial_magmoms:R:1 pbc="T T T"
Si      -0.82868859      -0.01494445      -2.17074546       0.00000000
Si      -1.93113063       0.50993239       1.22494172       0.00000000
Si       1.86079041       1.39821794       0.34787631       0.00000000
Si       0.88407459      -2.18519829       0.19571902       0.00000000
Si       1.00471833      -1.02912957      -3.27676713       0.00000000
Si      -2.85593022      -1.20642993      -1.82441267       0.00000000
Si       3.15504720      -1.67989878      -0.50572751       0.00000000
Si       3.42976176      -0.13020923       1.25577793       0.00000000
Si      -1.28308185       0.36408150       3.43197718       0.00000000
Si      -2.41619796       2.73598532       0.84032950       0.00000000
