10
Lattice="16.28999089631971 0.0 0.0 0.0 16.28999089631971 0.0 0.0 0.0 34.3005442915855" Properties=species:S:1:pos:R:3:initial_magmoms:R:1 pbc="T T T"
Si       2.22728283       0.87542460      -0.61415159       0.00000000
Si      -0.48560490       2.49175098       0.02620563       0.00000000
Si       0.04204449      -2.10930155      -1.64313419       0.00000000
Si      -0.30416688      -2.20834475       1.64639275       0.00000000
Si       2.72077209       0.26749809       1.60197352       0.00000000
Si       0.93617001      -0.68058154       3.04027644       0.00000000
Si       1.35754344       2.89864260      -1.36042895       0.00000000
Si      -2.46843999       0.96550830      -2.41345625       0.00000000
Si      -2.07016578      -2.80307636      -1.05357611       0.00000000
Si      -3.47187141      -0.91662364      -0.84516588       0.00000000
