10
Lattice="16.28999089631971 0.0 0.0 0.0 16.28999089631971 0.0 0.0 0.0 34.3005442915855" Properties=species:S:1:pos:R:3:initial_magmoms:R:1 pbc="T T T"
Si       1.67397180       0.75012192      -1.42704064       0.00000000
Si      -0.58100728       1.93953627       1.14869157       0.00000000
Si      -1.98687079      -1.30044699      -0.23111720       0.00000000
Si       0.94916454      -1.70012540       1.43153402       0.00000000
Si      -0.71054048      -3.11315651       0.60639966       0.00000000
Si       1.58776512       2.65067622       1.72614156       0.00000000
Si      -3.27288484      -0.20083941       1.41729928       0.00000000
Si      -2.04781168       1.25892378       2.83099701       0.00000000
Si       2.18451669      -0.87350238      -2.98054746       0.00000000
Si      -1.92576700       3.27388275      -0.33298987       0.00000000
