10
Lattice="16.28999089631971 0.0 0.0 0.0 16.28999089631971 0.0 0.0 0.0 34.3005442915855" Properties=species:S:1:pos:R:3:initial_magmoms:R:1 pbc="T T T"
Si       1.35568638       1.35373158      -1.38855541       0.00000000
Si      -1.35835794      -1.36464588      -1.38780080       0.00000000
Si      -1.52259372       1.33112106       1.37548690       0.00000000
Si       1.38868992      -1.32141222       1.52287642       0.00000000
Si       2.70736542       2.69358408      -0.01420043       0.00000000
Si       2.70042588      -2.70652160      -0.01011867       0.00000000
Si      -2.72879980      -2.71953079      -0.03358025       0.00000000
Si      -2.73923518       2.70938538      -0.03745622       0.00000000
Si      -0.00250866       2.70993924      -2.74754373       0.00000000
Si       2.71059084      -0.00461007      -2.74740653       0.00000000
