10
Lattice="16.28999089631971 0.0 0.0 0.0 16.28999089631971 0.0 0.0 0.0 34.3005442915855" Properties=species:S:1:pos:R:3:initial_magmoms:R:1 pbc="T T T"
Si      -0.33019830       2.19494718       0.76136961       0.00000000
Si       1.66161258      -1.52981019       0.68385033       0.00000000
Si      -2.02789323      -1.21399596      -0.28085301       0.00000000
Si       0.71286669      -0.55879587      -2.23896928       0.00000000
Si       1.50943140      -2.67240708      -1.41249720       0.00000000
Si      -2.44789830       2.65849542      -0.39551980       0.00000000
Si      -0.10806786       2.01020229       3.14296063       0.00000000
Si      -1.36824597      -3.50037891      -0.43325042       0.00000000
Si       1.02338667      -2.71376739       2.53316521       0.00000000
Si       3.78490005      -0.58280733       0.91191478       0.00000000
