10
Lattice="16.28999089631971 0.0 0.0 0.0 16.28999089631971 0.0 0.0 0.0 34.3005442915855" Properties=species:S:1:pos:R:3:initial_magmoms:R:1 pbc="T T T"
Si       2.02789323       1.21399596       0.28085301       0.00000000
Si       0.65964726      -2.28638295      -0.15239740       0.00000000
Si      -1.46331441      -0.62004627       1.81995360       0.00000000
Si      -1.42382745      -0.26021646      -2.17050536       0.00000000
Si      -1.37710773      -2.52060057      -1.33322860       0.00000000
Si       2.74075992       0.65520009      -1.95811627       0.00000000
Si      -1.96661025       1.50557067       2.53395413       0.00000000
Si      -2.43219474       2.58872535       0.38972300       0.00000000
Si      -3.21340612       1.08295920      -1.38323882       0.00000000
Si       1.18438074      -2.79663462       2.12831566       0.00000000
