10
Lattice="16.28999089631971 0.0 0.0 0.0 16.28999089631971 0.0 0.0 0.0 34.3005442915855" Properties=species:S:1:pos:R:3:initial_magmoms:R:1 pbc="T T T"
Si       1.25828847       1.93256415       0.24960520       0.00000000
Si       1.00690119      -2.12180508       0.26984253       0.00000000
Si      -0.53229204      -0.12624750      -2.31727747       0.00000000
Si      -1.81680741       0.08817777       1.58640106       0.00000000
Si      -0.71063496       3.29509233       0.11329476       0.00000000
Si      -1.77632676      -2.08393083      -2.18978227       0.00000000
Si       1.58113998      -0.90168408      -3.10111394       0.00000000
Si      -0.80365086      -3.49218504      -0.42203413       0.00000000
Si       1.71248625      -2.02803984       2.57154754       0.00000000
Si      -3.68289207       0.38656170       0.17997506       0.00000000
