10
Lattice="16.28999089631971 0.0 0.0 0.0 16.28999089631971 0.0 0.0 0.0 34.3005442915855" Properties=species:S:1:pos:R:3:initial_magmoms:R:1 pbc="T T T"
Si      -1.33905429      -1.35365013       1.35274562       0.00000000
Si      -1.35540945       1.35576783      -1.35699889       0.00000000
Si       1.35972630      -1.35658233      -1.35569547       0.00000000
Si       1.36453185       1.34956134       1.37562410       0.00000000
Si      -2.62883133      -0.00816129       2.74963607       0.00000000
Si      -2.71194291       2.71173114       0.00240104       0.00000000
Si      -2.70959715      -2.71630863       0.00569389       0.00000000
Si      -2.71257822      -0.00074934      -2.71389488       0.00000000
Si       0.00174303       2.71446786      -2.71317457       0.00000000
Si       0.00179190      -2.71494027      -2.71303737       0.00000000
