10
Lattice="16.28999089631971 0.0 0.0 0.0 16.28999089631971 0.0 0.0 0.0 34.3005442915855" Properties=species:S:1:pos:R:3:initial_magmoms:R:1 pbc="T T T"
Si      -1.23857757       1.45544634      -1.49276052       0.00000000
Si       1.46782674      -1.24131429      -1.48891886       0.00000000
Si       1.12708881       1.80737550       1.36975870       0.00000000
Si      -0.92756889      -1.99471050       1.37298295       0.00000000
Si      -1.13456592       2.40284016       2.47605477       0.00000000
Si      -2.69493615      -2.66525577      -0.11322616       0.00000000
Si       2.81862612      -2.58427818      -0.05735054       0.00000000
Si      -2.43216216       2.95878528      -0.13641334       0.00000000
Si       0.11246616      -2.60780094      -2.86378834       0.00000000
Si      -2.60310942       0.10588500      -2.86838462       0.00000000
