10
Lattice="16.28999089631971 0.0 0.0 0.0 16.28999089631971 0.0 0.0 0.0 34.3005442915855" Properties=species:S:1:pos:R:3:initial_magmoms:R:1 pbc="T T T"
Si       1.18833921       1.51438356      -1.42649183       0.00000000
Si      -1.26167679       1.62634473       1.26956676       0.00000000
Si      -1.61143938      -1.34667801      -1.40882704       0.00000000
Si       2.48593545       0.95843844       1.18597628       0.00000000
Si      -1.79216064      -0.20429289       2.80650640       0.00000000
Si       2.38192380       0.01104462      -2.78283901       0.00000000
Si       0.08079840      -1.58390928       3.40560004       0.00000000
Si       0.24115716       3.57598080       1.53128005       0.00000000
Si      -0.32166234      -2.69216685      -2.80571749       0.00000000
Si      -0.33871797       2.73028545      -2.79522152       0.00000000
