10
Lattice="16.28999089631971 0.0 0.0 0.0 16.28999089631971 0.0 0.0 0.0 34.3005442915855" Properties=species:S:1:pos:R:3:initial_magmoms:R:1 pbc="T T T"
Si       1.60863750       1.75542669       0.18789849       0.00000000
Si      -0.39956112      -0.49893012       2.31004005       0.00000000
Si      -1.87295904       1.37961639      -0.59909364       0.00000000
Si       1.34521191      -1.78914699      -1.15061240       0.00000000
Si      -0.98730432       1.71789453       2.77282325       0.00000000
Si       0.98655498       2.90183544       2.16532597       0.00000000
Si      -0.08079840       1.58390928      -3.40560004       0.00000000
Si      -3.47980138      -0.21651039      -1.47694796       0.00000000
Si      -2.77257429       2.36081196       1.38615437       0.00000000
Si       1.71813888      -0.96247836       3.46692945       0.00000000
