10
Lattice="16.28999089631971 0.0 0.0 0.0 16.28999089631971 0.0 0.0 0.0 34.3005442915855" Properties=species:S:1:pos:R:3:initial_magmoms:R:1 pbc="T T T"
Si       0.81539595       1.83370014      -1.14471270       0.00000000
Si      -0.29985003       0.77499675       2.17993801       0.00000000
Si       1.96892343      -1.36252818       0.13631044       0.00000000
Si      -2.34237168      -0.61419816      -0.34358874       0.00000000
Si       0.71063496      -3.29509233      -0.11329476       0.00000000
Si      -1.10617245      -3.20691456       1.47310630       0.00000000
Si       0.95884569       1.25182134      -3.39616739       0.00000000
Si      -2.25039834       2.02981545       2.20274788       0.00000000
Si      -3.02417334       0.65708973      -2.19835741       0.00000000
Si       2.98300851       2.32916049      -0.39106072       0.00000000
