10
Lattice="16.28999089631971 0.0 0.0 0.0 16.28999089631971 0.0 0.0 0.0 34.3005442915855" Properties=species:S:1:pos:R:3:initial_magmoms:R:1 pbc="T T T"
Si      -1.25828847      -1.93256415      -0.24960520       0.00000000
Si       1.27039194       0.13274721       1.99986005       0.00000000
Si       1.91272293       0.00496845      -1.43863423       0.00000000
Si      -1.96892343       1.36252818      -0.13631044       0.00000000
Si      -1.15352748       3.19622832      -1.28102314       0.00000000
Si       1.99531323      -2.11989915       2.18535750       0.00000000
Si       3.31310907      -1.57605750       0.19400399       0.00000000
Si      -2.26877346       2.13752493       2.04362757       0.00000000
Si      -1.79058051      -2.05881165      -2.56688267       0.00000000
Si      -3.07509588      -1.84438638       1.33679586       0.00000000
