10
Lattice="16.28999089631971 0.0 0.0 0.0 16.28999089631971 0.0 0.0 0.0 34.3005442915855" Properties=species:S:1:pos:R:3:initial_magmoms:R:1 pbc="T T T"
Si       1.36024758       1.34299647       1.39263375       0.00000000
Si      -1.35325917      -1.37275830       1.39129603       0.00000000
Si       1.67790258      -1.12609512      -1.36634923       0.00000000
Si      -1.44044325       1.34045523      -1.59856061       0.00000000
Si       0.25674669       2.57898393      -2.78169136       0.00000000
Si      -2.71298547       2.69586468      -0.00091239       0.00000000
Si      -2.69798238      -2.72978046      -0.00675721       0.00000000
Si       2.73611727       2.69600614       0.02108113       0.00000000
Si       2.72727180      -2.72567538       0.02976946       0.00000000
Si       0.00529425       2.70217731       2.75261679       0.00000000
