10
Lattice="16.28999089631971 0.0 0.0 0.0 16.28999089631971 0.0 0.0 0.0 34.3005442915855" Properties=species:S:1:pos:R:3:initial_magmoms:R:1 pbc="T T T"
Si      -1.35495333       1.35918084       1.35998304       0.00000000
Si       1.35904212      -1.35721764       1.36015454       0.00000000
Si      -1.36024758      -1.34299647      -1.39263375       0.00000000
Si       1.37586969       1.35300967      -1.37155262       0.00000000
Si       0.31765500      -2.46909159      -2.75898297       0.00000000
Si      -2.71176372       2.71484320      -0.00178363       0.00000000
Si       2.71767699       2.71122845       0.00037731       0.00000000
Si      -2.71350675      -2.71575477      -0.00133772       0.00000000
Si       2.71622718      -2.71363707       0.00209233       0.00000000
Si      -2.71337643       0.00107514       2.71732494       0.00000000
