10
Lattice="16.28999089631971 0.0 0.0 0.0 16.28999089631971 0.0 0.0 0.0 34.3005442915855" Properties=species:S:1:pos:R:3:initial_magmoms:R:1 pbc="T T T"
Si       0.79659729      -2.11597326      -0.64471339       0.00000000
Si      -1.71623295       0.23697063      -1.59305537       0.00000000
Si       1.80230931       1.53588636       0.15003066       0.00000000
Si      -0.99719235       0.35927595       2.13363225       0.00000000
Si       2.21860026       1.03456161       2.39524265       0.00000000
Si       1.06334604      -1.57977162      -2.93684854       0.00000000
Si      -1.93769550       2.51465472      -1.87010102       0.00000000
Si      -0.98464905      -3.62734317      -0.29145189       0.00000000
Si       2.63728584      -2.60094285       0.76270733       0.00000000
Si      -3.18580272       1.11837366       1.77429955       0.00000000
