10
Lattice="16.28999089631971 0.0 0.0 0.0 16.28999089631971 0.0 0.0 0.0 34.3005442915855" Properties=species:S:1:pos:R:3:initial_magmoms:R:1 pbc="T T T"
Si      -2.11221027      -0.69377481       0.58955808       0.00000000
Si      -0.13589118      -0.39561894      -2.30959414       0.00000000
Si       0.76240458      -1.58167755       1.61840349       0.00000000
Si      -0.04204449       2.10930155       1.64313419       0.00000000
Si      -0.34621137      -0.09904320       3.28952694       0.00000000
Si       1.89594423      -1.32647841      -2.92292252       0.00000000
Si      -3.51391590       1.19267791       0.79796831       0.00000000
Si      -3.00291489      -2.01525219      -1.21993384       0.00000000
Si       2.18523834       2.98472615       1.02898260       0.00000000
Si       3.14030475      -2.15373348       0.99955272       0.00000000
