10
Lattice="16.28999089631971 0.0 0.0 0.0 16.28999089631971 0.0 0.0 0.0 34.3005442915855" Properties=species:S:1:pos:R:3:initial_magmoms:R:1 pbc="T T T"
Si       1.35736425      -1.35265153       1.36049755       0.00000000
Si      -1.34180730      -1.35821877      -1.37192993       0.00000000
Si      -1.35829278       1.36240275       1.35806221       0.00000000
Si       1.36700793       1.35557724      -1.36547456       0.00000000
Si      -2.58084099       0.05252222      -2.78081871       0.00000000
Si       2.71194291      -2.70951800       0.00435617       0.00000000
Si      -0.00149868      -2.71000670       2.71698193       0.00000000
Si      -2.71767699      -2.71122845      -0.00037731       0.00000000
Si       2.71363707       0.00460518       2.71687903       0.00000000
Si       2.71774215       2.71541757      -0.00072031       0.00000000
