10
Lattice="16.28999089631971 0.0 0.0 0.0 16.28999089631971 0.0 0.0 0.0 34.3005442915855" Properties=species:S:1:pos:R:3:initial_magmoms:R:1 pbc="T T T"
Si       1.35682668       1.35775521       1.35905693       0.00000000
Si      -1.35837423      -1.35743755       1.35922843       0.00000000
Si      -1.35870003       1.36091547      -1.35809651       0.00000000
Si       1.35829278      -1.36240275      -1.35806221       0.00000000
Si      -2.71433754      -2.71445036       0.00154353       0.00000000
Si      -2.71339272       2.71642266       0.00198943       0.00000000
Si       2.71565703      -2.71505428       0.00243534       0.00000000
Si       2.71459818       0.00024435       2.71646742       0.00000000
Si      -0.00034209       2.71508688       2.71653602       0.00000000
Si      -0.00021177      -2.71530194       2.71657033       0.00000000
