10
Lattice="16.28999089631971 0.0 0.0 0.0 16.28999089631971 0.0 0.0 0.0 34.3005442915855" Properties=species:S:1:pos:R:3:initial_magmoms:R:1 pbc="T T T"
Si      -1.35619137      -1.35661002       1.35734190       0.00000000
Si       1.35826020       1.35734796       1.35703319       0.00000000
Si      -1.35777150       1.35751086      -1.35741050       0.00000000
Si       1.35733167      -1.35804191      -1.35765060       0.00000000
Si       2.71262709       0.00190593       2.71344897       0.00000000
Si       2.71489140      -0.00042354      -2.71351758       0.00000000
Si       0.00130320       2.71363707       2.71543841       0.00000000
Si       0.00105885      -2.71529863      -2.71403208       0.00000000
Si       2.71463076      -2.71474574      -0.00054881       0.00000000
Si       2.71485882       2.71458189      -0.00006860       0.00000000
