10
Lattice="16.28999089631971 0.0 0.0 0.0 16.28999089631971 0.0 0.0 0.0 34.3005442915855" Properties=species:S:1:pos:R:3:initial_magmoms:R:1 pbc="T T T"
Si       1.79754937      -0.05728053      -1.50795567       0.00000000
Si      -0.31033753      -2.01710992       1.16237749       0.00000000
Si      -1.86161535       0.02642401      -1.44690067       0.00000000
Si       0.17121116       2.14004011       1.09353626       0.00000000
Si      -0.91823961       1.93317340      -2.58012268       0.00000000
Si      -0.94626166      -0.87562075       3.15091836       0.00000000
Si      -0.67542901       3.32284072      -0.73941725       0.00000000
Si       1.78969759      -2.38690921      -1.82818573       0.00000000
Si      -3.61466370      -0.29244297       0.21245769       0.00000000
Si       1.15021735       1.25265865      -3.36642880       0.00000000
