10
Lattice="16.28999089631971 0.0 0.0 0.0 16.28999089631971 0.0 0.0 0.0 34.3005442915855" Properties=species:S:1:pos:R:3:initial_magmoms:R:1 pbc="T T T"
Si       1.35772263      -1.35620277      -1.35981154       0.00000000
Si      -1.36001952       1.35809730      -1.36036035       0.00000000
Si      -1.37018448      -1.34381423       1.37692752       0.00000000
Si       1.37393118       1.34584722       1.38697758       0.00000000
Si       2.71031391      -2.71323022       0.00240104       0.00000000
Si       2.71521720       2.71404432      -0.00171503       0.00000000
Si       2.71391400       0.00040725      -2.71715344       0.00000000
Si      -2.71871955      -2.71250396      -0.00144062       0.00000000
Si      -2.71492398       2.71643895      -0.00150922       0.00000000
Si      -0.00089595      -2.71513904      -2.71705053       0.00000000
