10
Lattice="16.28999089631971 0.0 0.0 0.0 16.28999089631971 0.0 0.0 0.0 34.3005442915855" Properties=species:S:1:pos:R:3:initial_magmoms:R:1 pbc="T T T"
Si      -0.45216153       1.44880002       1.76147114       0.00000000
Si      -1.86079041      -1.39821794      -0.34787631       0.00000000
Si       1.56897135      -1.52842717       0.90790161       0.00000000
Si       1.04239710       0.64109295      -2.06945590       0.00000000
Si       1.16861202      -1.61977497      -2.73365201       0.00000000
Si       1.29425679      -3.07811672      -0.85360382       0.00000000
Si       1.68368553       2.45410479       2.15479570       0.00000000
Si      -0.97671582      -3.58341623      -0.15215730       0.00000000
Si      -2.41008921       2.63463057       1.17815575       0.00000000
Si       2.95995816       1.87493013      -1.38505675       0.00000000
