10
Lattice="16.28999089631971 0.0 0.0 0.0 16.28999089631971 0.0 0.0 0.0 34.3005442915855" Properties=species:S:1:pos:R:3:initial_magmoms:R:1 pbc="T T T"
Si      -0.01615968       1.97483670       1.26534779       0.00000000
Si      -2.08097582      -0.07978842      -1.13377082       0.00000000
Si       1.30984632       0.46898910      -1.94055438       0.00000000
Si      -1.00343142      -1.88213194       1.56829036       0.00000000
Si      -2.03521558       1.33509582       2.42384932       0.00000000
Si       1.98283509       1.52624268       2.43966188       0.00000000
Si       2.46843999      -0.96550830       2.41345625       0.00000000
Si      -3.41923109       1.16888895       0.37860962       0.00000000
Si       1.67866821      -1.67732103      -2.90419441       0.00000000
Si       3.12039837       1.83936906      -1.24867771       0.00000000
