10
Lattice="16.28999089631971 0.0 0.0 0.0 16.28999089631971 0.0 0.0 0.0 34.3005442915855" Properties=species:S:1:pos:R:3:initial_magmoms:R:1 pbc="T T T"
Si       1.34920296       1.35503478       1.36495662       0.00000000
Si      -1.36765953      -1.36140417       1.36804367       0.00000000
Si      -1.04936922       1.59958026      -1.39611868       0.00000000
Si       1.40230836      -1.33183782      -1.39104563       0.00000000
Si      -2.17950426       0.23387553      -2.94876597       0.00000000
Si       2.47054140       0.25171308      -2.83533401       0.00000000
Si       0.89127477       2.29030884      -2.85913860       0.00000000
Si      -2.71606428      -2.69174331       0.01332920       0.00000000
Si       2.71565703       2.70951570      -0.00451395       0.00000000
Si       2.71427238      -2.71366965      -0.00248679       0.00000000
