10
Lattice="16.28999089631971 0.0 0.0 0.0 16.28999089631971 0.0 0.0 0.0 34.3005442915855" Properties=species:S:1:pos:R:3:initial_magmoms:R:1 pbc="T T T"
Si      -1.35637056      -1.35487188      -1.35703319       0.00000000
Si      -1.35697329       1.35710361       1.35699889       0.00000000
Si       1.35747828      -1.35796698       1.35706749       0.00000000
Si       1.35886293       1.35894438      -1.35751340       0.00000000
Si      -2.71433754       0.00097740       2.71464949       0.00000000
Si      -2.71665072      -0.00151497      -2.71262576       0.00000000
Si      -2.71471221      -2.71464705      -0.00017150       0.00000000
Si       2.71511946      -0.00026064       2.71437509       0.00000000
Si      -2.71469592       2.71482624      -0.00044591       0.00000000
Si       2.71521720       2.71492398      -0.00013720       0.00000000
