10
Lattice="16.28999089631971 0.0 0.0 0.0 16.28999089631971 0.0 0.0 0.0 34.3005442915855" Properties=species:S:1:pos:R:3:initial_magmoms:R:1 pbc="T T T"
Si       1.35697329      -1.35710361      -1.35699889       0.00000000
Si      -1.35736425      -1.35612621       1.35765060       0.00000000
Si      -1.35772263       1.35772263      -1.35744480       0.00000000
Si       1.35788553       1.36023129       1.35620998       0.00000000
Si       0.00441459       2.71155195       2.71241996       0.00000000
Si       0.00060273      -2.71197549      -2.71403208       0.00000000
Si      -2.71456560      -0.00070047      -2.71427219       0.00000000
Si       0.00000000       2.71423980      -2.71464949       0.00000000
Si       2.71445157      -2.71507059       0.00006860       0.00000000
Si       2.71469592       2.71500543      -0.00048021       0.00000000
