10
Lattice="16.28999089631971 0.0 0.0 0.0 16.28999089631971 0.0 0.0 0.0 34.3005442915855" Properties=species:S:1:pos:R:3:initial_magmoms:R:1 pbc="T T T"
Si      -1.35079938       1.34296389      -1.43156832       0.00000000
Si       1.36070370      -1.38785913      -1.43184272       0.00000000
Si      -1.69785783      -0.90082071       1.48439118       0.00000000
Si       1.56328614       1.32789564       1.36169807       0.00000000
Si      -2.57647527      -2.67116904       0.01910541       0.00000000
Si       2.63766051      -2.72349252       0.07223699       0.00000000
Si      -2.81862612       2.58427818       0.05735054       0.00000000
Si       0.00785178       2.68798032      -2.80674651       0.00000000
Si      -2.70615996      -0.02352276      -2.80643780       0.00000000
Si       2.72264544      -0.02371824      -2.80444837       0.00000000
