10
Lattice="16.28999089631971 0.0 0.0 0.0 16.28999089631971 0.0 0.0 0.0 34.3005442915855" Properties=species:S:1:pos:R:3:initial_magmoms:R:1 pbc="T T T"
Si       1.65433095       0.21251934       1.68463787       0.00000000
Si      -1.57832181       1.78776234       0.26143889       0.00000000
Si       1.13650443       0.74078775      -2.00407902       0.00000000
Si      -1.94178429      -1.37433843       0.55213617       0.00000000
Si       0.10093284      -3.08314314      -1.25371990       0.00000000
Si      -0.78185484       0.83095290      -3.30396747       0.00000000
Si      -1.29945330      -1.50211719      -2.88635811       0.00000000
Si       2.10758391      -2.18264823       1.83549175       0.00000000
Si       2.24298639       2.68563456      -1.03028602       0.00000000
Si      -2.19809115       2.18460303      -1.97509505       0.00000000
