10
Lattice="16.28999089631971 0.0 0.0 0.0 16.28999089631971 0.0 0.0 0.0 34.3005442915855" Properties=species:S:1:pos:R:3:initial_magmoms:R:1 pbc="T T T"
Si       1.34693865       1.36086660       1.37211172       0.00000000
Si      -1.36645407      -1.35448092       1.36947058       0.00000000
Si      -1.09903743       1.49529168      -1.47253005       0.00000000
Si       1.35746199      -1.41286428      -1.41389324       0.00000000
Si      -1.82438226      -0.41920686      -2.85462464       0.00000000
Si       2.47531437       0.22349880      -2.64234219       0.00000000
Si       0.88661583       2.28029049      -2.78125574       0.00000000
Si      -0.24511563      -2.45780262      -2.83082005       0.00000000
Si      -2.70681156       2.71216582      -0.00417438       0.00000000
Si      -2.71565703      -2.70951570       0.00451395       0.00000000
