10
Lattice="16.28999089631971 0.0 0.0 0.0 16.28999089631971 0.0 0.0 0.0 34.3005442915855" Properties=species:S:1:pos:R:3:initial_magmoms:R:1 pbc="T T T"
Si      -1.35700587       1.35710750       1.35765060       0.00000000
Si       1.35755973      -1.35767376       1.35696459       0.00000000
Si       1.35886293       1.35735517      -1.35648438       0.00000000
Si      -1.35713619      -1.35843939      -1.35720470       0.00000000
Si       2.71344159       0.00048870      -2.71262576       0.00000000
Si       0.00074934      -2.71244790       2.71365478       0.00000000
Si       0.00149868       2.71000670      -2.71698193       0.00000000
Si       2.71513575       2.71461188      -0.00010290       0.00000000
Si      -2.71485882      -2.71495656       0.00000000       0.00000000
Si       2.71505430      -2.71485882       0.00030871       0.00000000
