10
Lattice="16.28999089631971 0.0 0.0 0.0 16.28999089631971 0.0 0.0 0.0 34.3005442915855" Properties=species:S:1:pos:R:3:initial_magmoms:R:1 pbc="T T T"
Si       1.81034028       1.01935687      -1.06468949       0.00000000
Si      -0.96901065      -1.83472641      -1.08791097       0.00000000
Si       0.87690699      -1.15997832       1.87613792       0.00000000
Si      -1.82625561       1.62770236       0.19417549       0.00000000
Si       0.42699348       2.24143299      -2.47307063       0.00000000
Si      -2.29840497      -0.50891589      -2.47752970       0.00000000
Si      -1.12313034      -2.39873508       2.25361562       0.00000000
Si      -0.80817948       3.50903609      -0.89558771       0.00000000
Si      -2.63581974      -2.86607889       0.40728489       0.00000000
Si      -3.68911485       0.80734869      -1.12361786       0.00000000
