10
Lattice="16.28999089631971 0.0 0.0 0.0 16.28999089631971 0.0 0.0 0.0 34.3005442915855" Properties=species:S:1:pos:R:3:initial_magmoms:R:1 pbc="T T T"
Si      -1.32939432       1.32581052      -1.38961873       0.00000000
Si       0.96901065       1.83472641       1.08791097       0.00000000
Si       1.39610187      -1.37314926      -1.36601994       0.00000000
Si      -1.66680909      -1.03135248       1.49519586       0.00000000
Si      -0.15411969      -0.56400867       3.34152659       0.00000000
Si       1.84591764       0.67474809       2.96404889       0.00000000
Si      -0.85724496       3.46242877       1.28208646       0.00000000
Si      -2.72010420       2.64207510      -0.03570689       0.00000000
Si      -2.67550218      -0.02174715      -2.74387357       0.00000000
Si       2.88429111      -2.53413756       0.11538710       0.00000000
