10
Lattice="16.28999089631971 0.0 0.0 0.0 16.28999089631971 0.0 0.0 0.0 34.3005442915855" Properties=species:S:1:pos:R:3:initial_magmoms:R:1 pbc="T T T"
Si       1.35349605       1.34307792       1.39197175       0.00000000
Si      -1.36010097      -1.37345877       1.39248625       0.00000000
Si       1.55766350      -1.24224282      -1.40649117       0.00000000
Si      -1.43830926       1.33809318      -1.56226718       0.00000000
Si      -2.71179630       2.68789887       0.01802838       0.00000000
Si       0.21931946      -2.42735661      -2.95632582       0.00000000
Si       2.72433050       2.70125667      -0.00546408       0.00000000
Si      -2.70576900      -2.72635956       0.01700279       0.00000000
Si      -0.00252877       2.70343953       2.75380702       0.00000000
Si       2.71165688      -2.74765059       0.01867666       0.00000000
