10
Lattice="16.28999089631971 0.0 0.0 0.0 16.28999089631971 0.0 0.0 0.0 34.3005442915855" Properties=species:S:1:pos:R:3:initial_magmoms:R:1 pbc="T T T"
Si       1.30696299      -1.38494322       1.38344463       0.00000000
Si      -1.22767956      -1.48522446      -1.38977449       0.00000000
Si      -1.41340185       1.33310844       1.39501764       0.00000000
Si       1.49224545       1.03840605      -1.66928978       0.00000000
Si      -2.05902342       0.29463723      -2.68564978       0.00000000
Si       2.57442273       2.67950952      -0.19582535       0.00000000
Si      -0.07092666       1.45347525      -3.45950479       0.00000000
Si       2.81484684      -2.56868865      -0.16444376       0.00000000
Si       2.65263102      -0.03204243       2.75892809       0.00000000
Si      -2.72536587       2.71494027       0.00645880       0.00000000
