10
Lattice="16.28999089631971 0.0 0.0 0.0 16.28999089631971 0.0 0.0 0.0 34.3005442915855" Properties=species:S:1:pos:R:3:initial_magmoms:R:1 pbc="T T T"
Si       1.35825952       1.35610992      -1.35658728       0.00000000
Si      -1.35751086      -1.35790182      -1.35603848       0.00000000
Si      -1.35754344       1.35710361       1.35741050       0.00000000
Si       1.35719516      -1.35793440       1.35720470       0.00000000
Si       2.71354652       0.00164529      -2.71248856       0.00000000
Si       0.00074934       2.71295289       2.71454659       0.00000000
Si       2.71333638      -0.00081450       2.71526690       0.00000000
Si      -2.71414206      -0.00013032       2.71451229       0.00000000
Si      -2.71096551      -0.00470781      -2.71777085       0.00000000
Si       2.71486438       2.71435383       0.00010290       0.00000000
