10
Lattice="16.28999089631971 0.0 0.0 0.0 16.28999089631971 0.0 0.0 0.0 34.3005442915855" Properties=species:S:1:pos:R:3:initial_magmoms:R:1 pbc="T T T"
Si       0.81099765      -1.12443354      -1.97108188       0.00000000
Si      -0.83109951       2.05061778       0.97866368       0.00000000
Si       2.27533151       0.57959820       0.72878407       0.00000000
Si      -1.40644602      -1.51697367       1.44422522       0.00000000
Si      -1.65747492       1.52044344      -2.16234182       0.00000000
Si       1.54626309      -3.10133907      -0.72607433       0.00000000
Si       1.03549014       3.48203637       0.57947372       0.00000000
Si      -1.42332246       1.37588598       3.17911342       0.00000000
Si       0.18940383      -3.06660879       2.17657655       0.00000000
Si      -2.77288380       2.71823085      -0.30695574       0.00000000
