10
Lattice="16.28999089631971 0.0 0.0 0.0 16.28999089631971 0.0 0.0 0.0 34.3005442915855" Properties=species:S:1:pos:R:3:initial_magmoms:R:1 pbc="T T T"
Si      -1.24260706       1.23074208      -1.54167313       0.00000000
Si      -1.76344041      -1.07979894       1.14406099       0.00000000
Si       1.78957867      -1.34317566      -0.78726653       0.00000000
Si       0.78121138       1.50576615       1.77296182       0.00000000
Si      -0.41868069      -2.41414542       2.62574243       0.00000000
Si      -1.31036664       2.65841397       2.10667201       0.00000000
Si       3.21340612      -1.08295920       1.38323882       0.00000000
Si      -3.00135009       0.93652839       1.95554372       0.00000000
Si      -0.28683921       3.07195191      -2.51841597       0.00000000
Si       3.07512032      -0.44685099      -2.54568492       0.00000000
