10
Lattice="16.28999089631971 0.0 0.0 0.0 16.28999089631971 0.0 0.0 0.0 34.3005442915855" Properties=species:S:1:pos:R:3:initial_magmoms:R:1 pbc="T T T"
Si       1.11785238       1.63636308      -1.22844895       0.00000000
Si       1.35549090      -1.31411430       1.40537298       0.00000000
Si      -1.60257762      -1.04493834      -1.41692682       0.00000000
Si      -1.35746199       1.41286428       1.41389324       0.00000000
Si      -3.18184425       0.99365742      -1.44073141       0.00000000
Si       2.62897794      -2.66391999      -0.17492258       0.00000000
Si      -2.67081066      -2.62848924       0.02736156       0.00000000
Si      -2.45649942       2.90815596      -0.05863681       0.00000000
Si      -0.00814500      -2.65719222       2.78171739       0.00000000
Si       2.63062323       2.80748376       0.06133284       0.00000000
