10
Lattice="16.28999089631971 0.0 0.0 0.0 16.28999089631971 0.0 0.0 0.0 34.3005442915855" Properties=species:S:1:pos:R:3:initial_magmoms:R:1 pbc="T T T"
Si      -1.35762489      -1.35765747       1.35679309       0.00000000
Si      -1.35752715       1.35752715      -1.35771920       0.00000000
Si       1.35834165       1.35718506       1.35768490       0.00000000
Si       1.35775521      -1.35783666      -1.35813081       0.00000000
Si      -2.71388142       0.00154755      -2.71509540       0.00000000
Si      -2.71502172       2.71471221      -0.00106332       0.00000000
Si       2.71511812       2.71474479      -0.00034301       0.00000000
Si       2.71480285      -2.71515204      -0.00078891       0.00000000
Si       0.00089595      -2.71406061      -2.71615872       0.00000000
Si      -2.71526607      -2.71536381      -0.00051451       0.00000000
