10
Lattice="16.28999089631971 0.0 0.0 0.0 16.28999089631971 0.0 0.0 0.0 34.3005442915855" Properties=species:S:1:pos:R:3:initial_magmoms:R:1 pbc="T T T"
Si      -0.57769227       0.81510273       2.16457136       0.00000000
Si       2.09157803      -1.15264782      -0.33371018       0.00000000
Si      -1.69098345      -1.72188558      -0.15112828       0.00000000
Si      -0.39139983       2.00984391      -1.33240539       0.00000000
Si      -2.71689507       1.76326218       1.61603675       0.00000000
Si       1.31036664      -2.65841397      -2.10667201       0.00000000
Si      -1.68098139       3.36409677       0.18398822       0.00000000
Si       0.68319187       2.80789101       2.46603901       0.00000000
Si       2.55716252      -2.23580250       1.81052094       0.00000000
Si      -3.63089439      -0.63138411      -1.19801578       0.00000000
