10
Lattice="16.28999089631971 0.0 0.0 0.0 16.28999089631971 0.0 0.0 0.0 34.3005442915855" Properties=species:S:1:pos:R:3:initial_magmoms:R:1 pbc="T T T"
Si       1.35677647       1.35755973      -1.35802791       0.00000000
Si      -1.35834165      -1.35718506      -1.35768490       0.00000000
Si       1.35864409      -1.35966114       1.35854242       0.00000000
Si      -1.36153449       1.35891180       1.36018884       0.00000000
Si       2.71388209      -2.71389771      -0.00161213       0.00000000
Si      -2.71443528       2.71570590      -0.00113192       0.00000000
Si       2.71412155       0.00027693      -2.71605582       0.00000000
Si      -2.71596654      -2.71484253      -0.00089181       0.00000000
Si      -0.00058644      -2.71502172      -2.71581571       0.00000000
Si      -0.00079821       2.71534752      -2.71560991       0.00000000
