10
Lattice="16.28999089631971 0.0 0.0 0.0 16.28999089631971 0.0 0.0 0.0 34.3005442915855" Properties=species:S:1:pos:R:3:initial_magmoms:R:1 pbc="T T T"
Si       1.21485933      -1.06692984      -1.71310734       0.00000000
Si      -1.16554950       1.90748962      -0.76545137       0.00000000
Si       0.91000827       1.39770059       1.70326308       0.00000000
Si      -1.77127686      -1.31950629       0.94292249       0.00000000
Si      -1.06769547      -1.27465992       3.14014798       0.00000000
Si      -0.84304008       1.07883361       3.36262144       0.00000000
Si      -3.24226386       1.12061095      -1.36821518       0.00000000
Si       2.17680568      -2.95728660      -0.72250707       0.00000000
Si      -3.72550671      -0.03486060       0.58990109       0.00000000
Si       1.85338402       3.30444998       0.57004106       0.00000000
