10
Lattice="16.28999089631971 0.0 0.0 0.0 16.28999089631971 0.0 0.0 0.0 34.3005442915855" Properties=species:S:1:pos:R:3:initial_magmoms:R:1 pbc="T T T"
Si       0.70358139       0.04484637       2.19722549       0.00000000
Si      -1.95422985       1.28464569      -0.35302140       0.00000000
Si      -0.57744792      -2.25372150      -0.50956917       0.00000000
Si       1.77127686       1.31950629      -0.94292249       0.00000000
Si       0.92823678       2.39833990       2.41969895       0.00000000
Si      -1.47098700       2.44011724      -2.31113767       0.00000000
Si       0.60572736       3.22699591      -1.70837386       0.00000000
Si       0.54799560      -2.68240914      -2.51543182       0.00000000
Si      -3.60038322      -0.11619657      -1.12598460       0.00000000
Si       2.84332176      -0.94242537       2.33411904       0.00000000
