10
Lattice="16.28999089631971 0.0 0.0 0.0 16.28999089631971 0.0 0.0 0.0 34.3005442915855" Properties=species:S:1:pos:R:3:initial_magmoms:R:1 pbc="T T T"
Si      -1.48779406      -1.20958137      -1.48844692       0.00000000
Si       1.40486100      -1.30013748       1.53396579       0.00000000
Si       1.08432267       1.40454009      -1.70021860       0.00000000
Si      -1.31590381       1.41501456       1.54544619       0.00000000
Si      -1.08241674       2.59310736      -2.52312342       0.00000000
Si      -2.67116482       0.68514111      -2.60681679       0.00000000
Si      -2.75777875      -2.66330097      -0.02283732       0.00000000
Si       2.66240013       2.77009821      -0.05783761       0.00000000
Si      -2.75613346       2.80810278       0.21341811       0.00000000
Si       0.03402655      -2.65831623       2.93140161       0.00000000
