10
Lattice="16.28999089631971 0.0 0.0 0.0 16.28999089631971 0.0 0.0 0.0 34.3005442915855" Properties=species:S:1:pos:R:3:initial_magmoms:R:1 pbc="T T T"
Si       1.11718449       1.63403361      -1.34224965       0.00000000
Si      -1.68667379      -1.08967068      -1.32218382       0.00000000
Si      -0.67037911       1.18029195       1.99522948       0.00000000
Si       1.72374264      -1.82853621      -0.08304166       0.00000000
Si      -1.62614697      -0.66091788       2.97197232       0.00000000
Si       2.40696153       0.28854477      -2.73914010       0.00000000
Si      -0.34571290      -2.43123363      -2.73838548       0.00000000
Si      -3.09048083      -2.36494962       0.27210637       0.00000000
Si       2.72862387       2.98071162       0.06657739       0.00000000
Si       3.65418909      -1.12894587      -1.33672726       0.00000000
