10
Lattice="16.28999089631971 0.0 0.0 0.0 16.28999089631971 0.0 0.0 0.0 34.3005442915855" Properties=species:S:1:pos:R:3:initial_magmoms:R:1 pbc="T T T"
Si      -0.95576786      -1.84120983       0.97674285       0.00000000
Si       0.67037911      -1.18029195      -1.99522948       0.00000000
Si       1.60684234       1.59612678       0.87785432       0.00000000
Si      -2.19560922       1.06122834       0.82743249       0.00000000
Si       3.47980138       0.21651039       1.47694796       0.00000000
Si       1.78756360       0.45374166      -3.33747913       0.00000000
Si      -2.79848583       2.28890790      -1.29762462       0.00000000
Si       0.70722709       2.57732235       2.86310233       0.00000000
Si      -1.41492726       1.59630597       3.29268259       0.00000000
Si       0.28683921      -3.07195191       2.51841597       0.00000000
