10
Lattice="16.28999089631971 0.0 0.0 0.0 16.28999089631971 0.0 0.0 0.0 34.3005442915855" Properties=species:S:1:pos:R:3:initial_magmoms:R:1 pbc="T T T"
Si      -1.35519605      -1.35205371       1.39186541       0.00000000
Si       1.36146933       1.36197499       1.39176251       0.00000000
Si      -1.48554863       1.32656705      -1.41107030       0.00000000
Si       1.27254222      -1.35540945      -1.59764821       0.00000000
Si       2.71298547      -2.69586468       0.00091239       0.00000000
Si      -2.70576172      -2.71049310       0.00563558       0.00000000
Si       2.71792134       2.72090960       0.00862316       0.00000000
Si      -2.71512665       2.74358528       0.01816558       0.00000000
Si       0.00329058      -2.70793557       2.75236296       0.00000000
Si      -2.71274831       0.00701407       2.75356348       0.00000000
