10
Lattice="16.28999089631971 0.0 0.0 0.0 16.28999089631971 0.0 0.0 0.0 34.3005442915855" Properties=species:S:1:pos:R:3:initial_magmoms:R:1 pbc="T T T"
Si      -1.34449963      -1.36881612      -1.39517542       0.00000000
Si       1.36975442       1.34555400      -1.39623874       0.00000000
Si       1.45286600      -1.37433843       1.35099629       0.00000000
Si      -1.46935541       1.43914005       1.64258538       0.00000000
Si      -2.70301340      -2.70508482      -0.01396033       0.00000000
Si      -2.70666236       2.71415835      -0.00662001       0.00000000
Si       2.72558741       2.70262503      -0.03539818       0.00000000
Si      -2.70314372      -0.00915498      -2.75371784       0.00000000
Si       0.01210510       2.70764235      -2.75399224       0.00000000
Si       2.74264304      -2.71982727      -0.04589415       0.00000000
