10
Lattice="16.28999089631971 0.0 0.0 0.0 16.28999089631971 0.0 0.0 0.0 34.3005442915855" Properties=species:S:1:pos:R:3:initial_magmoms:R:1 pbc="T T T"
Si       1.54227204      -0.09865224       1.76630752       0.00000000
Si       1.78339662      -0.95189800      -1.24689408       0.00000000
Si      -0.94308349       1.86772995      -1.14306628       0.00000000
Si      -1.78374523      -1.71234290       0.43493114       0.00000000
Si      -2.13686423       0.51549705      -2.61973983       0.00000000
Si       0.47348514      -2.32172315      -2.66165512       0.00000000
Si      -0.73960998      -3.43501433      -0.95818624       0.00000000
Si      -3.42230813      -0.74671242      -1.05385051       0.00000000
Si       2.54874969      -2.71310669       0.35401612       0.00000000
Si       1.55802447      -2.32473680       2.48867738       0.00000000
