10
Lattice="16.28999089631971 0.0 0.0 0.0 16.28999089631971 0.0 0.0 0.0 34.3005442915855" Properties=species:S:1:pos:R:3:initial_magmoms:R:1 pbc="T T T"
Si       0.13327826      -2.34279522       0.31830923       0.00000000
Si      -0.83532351       0.83108322       2.05707339       0.00000000
Si       2.07548609       0.84465279      -0.80750386       0.00000000
Si      -1.26628360       1.45704669      -2.86125010       0.00000000
Si      -2.11165382       2.64379274       1.21955653       0.00000000
Si       0.82438151       2.24411433       2.88220775       0.00000000
Si       3.67094498       0.47591235       0.82043518       0.00000000
Si       1.03289351      -3.32399079      -1.66693878       0.00000000
Si       1.56337736      -1.49335317      -3.20387843       0.00000000
Si      -3.03190850       2.28046872      -0.96508065       0.00000000
