10
Lattice="10.86 0.0 0.0 0.0 10.86 0.0 0.0 0.0 10.86" Properties=species:S:1:pos:R:3:initial_magmoms:R:1 pbc="T T T"
Si       1.35750000       1.35750000       1.35750000       0.00000000
Si       1.35750000      -1.35750000      -1.35750000       0.00000000
Si      -1.35750000       1.35750000      -1.35750000       0.00000000
Si      -1.35750000      -1.35750000       1.35750000       0.00000000
Si      -2.63171466      -2.48139054       0.15702474       0.00000000
Si       2.78967336      -0.27696258       2.29842126       0.00000000
Si       2.64600642       0.06403056      -2.53590774       0.00000000
Si      -2.36507994       2.90287800      -0.24082050       0.00000000
Si       2.82002706       2.49410760      -0.00204168       0.00000000
Si      -2.75883096       0.06767952       2.58703662       0.00000000
