10
Lattice="16.28999089631971 0.0 0.0 0.0 16.28999089631971 0.0 0.0 0.0 34.40785480372833" Properties=species:S:1:pos:R:3:initial_magmoms:R:1 pbc="T T T"
Si      -0.09014886      -1.12366791       2.08442901       0.00000000
Si      -1.19171124      -1.08238905      -1.78126123       0.00000000
Si       2.33820144       0.02221956      -0.58758326       0.00000000
Si      -0.88493796       2.20664340       0.42411146       0.00000000
Si      -2.30301993      -1.67881482       2.35215668       0.00000000
Si       3.33894501       0.70214787       1.42837407       0.00000000
Si      -0.03880278      -3.13080768      -2.05851988       0.00000000
Si       0.98789076       3.61155816       0.47011478       0.00000000
Si      -0.96314625       0.30794616      -3.72024816       0.00000000
Si       2.65331520       1.64719593      -2.27030034       0.00000000
