10
Lattice="16.28999089631971 0.0 0.0 0.0 16.28999089631971 0.0 0.0 0.0 34.40785480372833" Properties=species:S:1:pos:R:3:initial_magmoms:R:1 pbc="T T T"
Si       1.93161933      -0.63627111       1.15324871       0.00000000
Si       0.46517724       2.32018211       0.17682206       0.00000000
Si       0.89181234      -0.55638495      -2.17788079       0.00000000
Si      -2.15132975      -0.47550510       1.04999068       0.00000000
Si      -2.13798824      -2.61902475      -0.00192684       0.00000000
Si       2.76464106       0.84852981      -2.13187747       0.00000000
Si       1.84669956       0.81969651       2.97793268       0.00000000
Si      -1.64137698       3.39647219      -0.01672223       0.00000000
Si      -2.52308384       0.39925161      -2.86122117       0.00000000
Si       1.90707030       2.95848296      -1.57268070       0.00000000
