10
Lattice="16.28999089631971 0.0 0.0 0.0 16.28999089631971 0.0 0.0 0.0 34.40785480372833" Properties=species:S:1:pos:R:3:initial_magmoms:R:1 pbc="T T T"
Si      -1.35039213      -1.35681365       1.39521865       0.00000000
Si       1.36368477       1.35760860       1.39521865       0.00000000
Si       1.40612022      -1.41586164      -1.31272233       0.00000000
Si      -1.15580808       1.23070950      -2.04980781       0.00000000
Si      -2.68037289       2.68050321       0.05501131       0.00000000
Si      -2.72010420      -2.70778376       0.01870068       0.00000000
Si       2.72215674       2.71134018       0.00428034       0.00000000
Si      -2.70816363      -0.00491958       2.75949085       0.00000000
Si       2.55340863       0.03567510      -2.90378513       0.00000000
Si       0.00946449       2.71047681       2.76028223       0.00000000
