10
Lattice="16.28999089631971 0.0 0.0 0.0 16.28999089631971 0.0 0.0 0.0 34.40785480372833" Properties=species:S:1:pos:R:3:initial_magmoms:R:1 pbc="T T T"
Si       1.34271954      -1.31251462       1.35239805       0.00000000
Si      -1.40612022       1.41586164       1.31272233       0.00000000
Si      -0.77297679      -1.96668260      -1.13993768       0.00000000
Si       1.14728841       1.45153674      -1.59106280       0.00000000
Si      -0.60686766      -0.60484770      -2.99683090       0.00000000
Si      -1.17183744       1.77015285      -2.59625443       0.00000000
Si      -2.56192830       2.64657114      -0.73708548       0.00000000
Si       2.68239285      -2.63840075      -0.16148303       0.00000000
Si      -0.04092048      -2.66091353       2.71296453       0.00000000
Si       2.61047250       2.75682186      -0.20496082       0.00000000
