10
Lattice="16.28999089631971 0.0 0.0 0.0 16.28999089631971 0.0 0.0 0.0 34.40785480372833" Properties=species:S:1:pos:R:3:initial_magmoms:R:1 pbc="T T T"
Si       0.15416856      -2.02791278      -1.24879938       0.00000000
Si       0.44689986       1.67031144      -1.65467466       0.00000000
Si      -2.13457644       0.03486060       1.09217474       0.00000000
Si       2.00821491      -0.03543075       1.44316946       0.00000000
Si       1.08535383      -3.08883552       0.67666525       0.00000000
Si      -1.73253924      -0.95969277       3.15286231       0.00000000
Si       3.18186054       1.81781739       0.69958089       0.00000000
Si       3.14901990      -1.90183144       0.67989959       0.00000000
Si      -2.60387505       2.25122913       1.57058182       0.00000000
Si       1.30160358      -1.42268715      -3.28942717       0.00000000
