10
Lattice="16.28999089631971 0.0 0.0 0.0 16.28999089631971 0.0 0.0 0.0 34.40785480372833" Properties=species:S:1:pos:R:3:initial_magmoms:R:1 pbc="T T T"
Si      -1.31579217      -0.24418174       1.93898693       0.00000000
Si       0.34963227      -2.20854397      -0.80142820       0.00000000
Si       2.06329140       0.99620795       0.73113292       0.00000000
Si      -0.86258808       0.98020791      -2.02947963       0.00000000
Si       2.59512732      -2.20168588      -1.58537720       0.00000000
Si      -2.17336293       1.86577140       2.49818369       0.00000000
Si       3.21072642       1.60143357      -1.30949487       0.00000000
Si      -0.66901401      -0.65555311      -3.76965786       0.00000000
Si       0.03451851      -3.83352034       0.88128888       0.00000000
Si      -0.99983133      -2.76918061      -2.69843752       0.00000000
