10
Lattice="16.28999089631971 0.0 0.0 0.0 16.28999089631971 0.0 0.0 0.0 34.40785480372833" Properties=species:S:1:pos:R:3:initial_magmoms:R:1 pbc="T T T"
Si      -1.35765747      -1.35741312       1.35573905       0.00000000
Si       1.35804843       1.35759231       1.35632399       0.00000000
Si       1.35422028      -1.35286821      -1.36506359       0.00000000
Si      -1.35821133       1.35397593      -1.36547648       0.00000000
Si      -2.68983738      -0.02997360      -2.70527092       0.00000000
Si      -2.71459818      -0.00035838       2.71347376       0.00000000
Si       0.00035838       2.71502172       2.71374902       0.00000000
Si       2.71531494       0.00034209       2.71381784       0.00000000
Si       0.00034209      -2.71643895       2.71302646       0.00000000
Si      -2.71521720       2.71554300       0.00010322       0.00000000
