10
Lattice="16.28999089631971 0.0 0.0 0.0 16.28999089631971 0.0 0.0 0.0 34.40785480372833" Properties=species:S:1:pos:R:3:initial_magmoms:R:1 pbc="T T T"
Si       1.35711990       1.35767376      -1.35811320       0.00000000
Si      -1.35783666      -1.35770634      -1.35838846       0.00000000
Si       1.35967743      -1.35420399       1.36031530       0.00000000
Si      -1.35777150       1.36070370       1.36127872       0.00000000
Si       2.71622718       2.71262709      -0.00041289       0.00000000
Si      -2.71442062      -2.71477737       0.00055053       0.00000000
Si      -2.71607568       2.71417464      -0.00055053       0.00000000
Si       2.71480995       0.00024435      -2.71553823       0.00000000
Si      -2.71512109      -0.00032580      -2.71574468       0.00000000
Si      -0.00089595      -2.71476108      -2.71612317       0.00000000
