10
Lattice="16.28999089631971 0.0 0.0 0.0 16.28999089631971 0.0 0.0 0.0 34.40785480372833" Properties=species:S:1:pos:R:3:initial_magmoms:R:1 pbc="T T T"
Si      -2.06767341      -0.49212090       0.90165834       0.00000000
Si      -0.49769208       0.62638308      -2.20509742       0.00000000
Si       1.36901160      -1.91835927      -0.17482641       0.00000000
Si       0.52237143       2.04349905       1.18139435       0.00000000
Si      -3.15525897       1.55865978       1.00880446       0.00000000
Si      -1.68176331      -1.33744158       3.05043007       0.00000000
Si       2.65030155       1.69422516       2.02610766       0.00000000
Si      -1.23950610       2.83820670      -2.13731391       0.00000000
Si       1.46639322       0.67351005      -3.47464475       0.00000000
Si       0.10422342       3.81785472      -0.39582818       0.00000000
