10
Lattice="16.28999089631971 0.0 0.0 0.0 16.28999089631971 0.0 0.0 0.0 34.40785480372833" Properties=species:S:1:pos:R:3:initial_magmoms:R:1 pbc="T T T"
Si       2.06767341       0.49212090      -0.90165834       0.00000000
Si      -1.08758556       2.05078068       0.10714612       0.00000000
Si       0.38591010      -0.84532068       2.14877173       0.00000000
Si      -1.53284013      -1.32768387      -1.20943677       0.00000000
Si      -3.25929668       1.19850417       0.32522323       0.00000000
Si       0.85520871      -3.06168921       1.67036465       0.00000000
Si       2.59004484       2.53561995       0.27973602       0.00000000
Si       1.56998133       1.11850398      -3.10675576       0.00000000
Si      -0.45678789       3.00022704       2.16535633       0.00000000
Si      -3.36505136       0.04015485      -1.79674477       0.00000000
