10
Lattice="16.28999089631971 0.0 0.0 0.0 16.28999089631971 0.0 0.0 0.0 34.40785480372833" Properties=species:S:1:pos:R:3:initial_magmoms:R:1 pbc="T T T"
Si       0.74181402      -2.21182362      -0.06778351       0.00000000
Si      -2.08999071      -0.14755482       1.04758213       0.00000000
Si       1.34372952       0.97964802       1.74148573       0.00000000
Si      -0.05660775       0.37851444      -2.43009051       0.00000000
Si      -1.22368851      -3.06800973      -1.04685957       0.00000000
Si       0.68188311       2.61895959      -2.27081646       0.00000000
Si      -3.07719729      -1.85477940      -0.25386129       0.00000000
Si       3.40461000       1.22248305       0.60664523       0.00000000
Si       2.70589932      -2.16469665      -1.33733084       0.00000000
Si       1.23950610      -2.83820670       2.13731391       0.00000000
