10
Lattice="16.28999089631971 0.0 0.0 0.0 16.28999089631971 0.0 0.0 0.0 34.40785480372833" Properties=species:S:1:pos:R:3:initial_magmoms:R:1 pbc="T T T"
Si      -1.26666153       0.50730318       1.88961163       0.00000000
Si       2.16784062       0.17547588       0.85978396       0.00000000
Si      -0.31855095       1.76767677      -1.52475053       0.00000000
Si      -0.58192767      -2.21045526      -0.58021998       0.00000000
Si       3.28821795      -1.54012176      -0.31761909       0.00000000
Si       1.88869518       2.54945016      -1.95096087       0.00000000
Si      -2.89126323      -2.24782452      -0.85489804       0.00000000
Si      -0.20678526       2.42271396       2.87247255       0.00000000
Si       2.24433846      -1.23831693       2.78896464       0.00000000
Si      -3.51189594       0.89963154       1.27680739       0.00000000
