10
Lattice="16.28999089631971 0.0 0.0 0.0 16.28999089631971 0.0 0.0 0.0 34.40785480372833" Properties=species:S:1:pos:R:3:initial_magmoms:R:1 pbc="T T T"
Si      -0.66512070      -2.03512599      -0.87100092       0.00000000
Si       1.96907004       0.17637183       1.24480807       0.00000000
Si      -2.00383290       0.38385756       1.20461967       0.00000000
Si      -0.02251278       1.77215652      -1.62143666       0.00000000
Si       1.19926980      -2.38275459      -2.21593590       0.00000000
Si       3.48848721       0.02653641      -0.72208364       0.00000000
Si       2.13669414       2.59019145       1.28798995       0.00000000
Si      -3.61203057       0.85555080      -0.66383111       0.00000000
Si      -2.26774719       2.16448488      -2.23424089       0.00000000
Si      -1.26778554       1.24743933       3.43165490       0.00000000
