10
Lattice="16.28999089631971 0.0 0.0 0.0 16.28999089631971 0.0 0.0 0.0 34.40785480372833" Properties=species:S:1:pos:R:3:initial_magmoms:R:1 pbc="T T T"
Si      -1.35220032      -1.35856971       1.36170194       0.00000000
Si       1.36151820       1.35408996       1.36025681       0.00000000
Si       1.30404708      -1.35870003      -1.43520060       0.00000000
Si      -1.38673512       1.38518757      -1.47246432       0.00000000
Si       0.62946189       2.04832089      -2.49264540       0.00000000
Si      -0.71192187      -2.13100893      -2.65438030       0.00000000
Si      -2.33826660      -0.44165448      -2.54960213       0.00000000
Si       2.27050020       0.34585299      -2.71908710       0.00000000
Si      -2.70772380      -0.00417024       2.71988395       0.00000000
Si       0.00781920       2.70951919       2.71895494       0.00000000
