10
Lattice="16.28999089631971 0.0 0.0 0.0 16.28999089631971 0.0 0.0 0.0 34.40785480372833" Properties=species:S:1:pos:R:3:initial_magmoms:R:1 pbc="T T T"
Si      -1.35711990       1.35532800      -1.36062497       0.00000000
Si       1.35866745      -1.35961227      -1.36055615       0.00000000
Si       1.34918667       1.34640108       1.38739430       0.00000000
Si      -1.37453391      -1.33244055       1.37724397       0.00000000
Si      -2.71554300       2.71098483      -0.00058493       0.00000000
Si       0.00089595       2.71255016      -2.71749948       0.00000000
Si       2.71658556       2.71476369       0.00003441       0.00000000
Si      -2.71655298      -2.71490769       0.00099783       0.00000000
Si      -2.71451673      -0.00255753      -2.71801560       0.00000000
Si       2.71559187      -0.00206883      -2.71791238       0.00000000
