10
Lattice="16.28999089631971 0.0 0.0 0.0 16.28999089631971 0.0 0.0 0.0 34.40785480372833" Properties=species:S:1:pos:R:3:initial_magmoms:R:1 pbc="T T T"
Si       1.35801585       1.35722216      -1.35687451       0.00000000
Si      -1.35739683      -1.35788553      -1.35739063       0.00000000
Si       1.35711990      -1.35532800       1.36062497       0.00000000
Si      -1.35842310       1.35565683       1.36004004       0.00000000
Si      -2.70669753      -0.00744453       2.71660488       0.00000000
Si      -0.01741401      -2.68776855       2.73786894       0.00000000
Si      -2.71480995      -0.00043983      -2.71433396       0.00000000
Si       0.00014661      -2.71503801      -2.71447159       0.00000000
Si      -2.71603170      -2.71397916      -0.00079138       0.00000000
Si      -0.00008145       2.71522113      -2.71485008       0.00000000
