10
Lattice="16.28999089631971 0.0 0.0 0.0 16.28999089631971 0.0 0.0 0.0 34.40785480372833" Properties=species:S:1:pos:R:3:initial_magmoms:R:1 pbc="T T T"
Si       2.29571712       0.53651115       0.35591505       0.00000000
Si      -1.75630635       0.78535719       1.72410975       0.00000000
Si      -0.57673116       0.65410866      -2.43573340       0.00000000
Si      -0.65790423      -2.77912287       1.58572128       0.00000000
Si      -2.08712367      -1.32827031       2.79533009       0.00000000
Si      -3.62895588       1.14227109       0.32728770       0.00000000
Si       2.46643632       1.09071324       2.83383251       0.00000000
Si       3.17474181       1.76192870      -1.76330032       0.00000000
Si       1.47507579      -2.79464724       2.65202130       0.00000000
Si       3.94661088      -1.20642111       0.68206729       0.00000000
