10
Lattice="16.28999089631971 0.0 0.0 0.0 16.28999089631971 0.0 0.0 0.0 34.40785480372833" Properties=species:S:1:pos:R:3:initial_magmoms:R:1 pbc="T T T"
Si      -0.31511376      -1.62497637       1.68271708       0.00000000
Si      -0.34963227       2.20854397       0.80142820       0.00000000
Si       2.24549505       0.00685809      -0.78394900       0.00000000
Si      -1.34946360      -0.56063664      -1.89700932       0.00000000
Si      -1.01864628       1.55299086      -2.96822966       0.00000000
Si      -1.21222035       3.18875188      -1.22805143       0.00000000
Si       2.21273586      -2.02701357      -2.04031811       0.00000000
Si       0.07975584      -2.01148920      -3.10661813       0.00000000
Si      -1.66542444       1.96436223       2.74041513       0.00000000
Si       0.74160225      -3.65080077       0.90568406       0.00000000
