10
Lattice="16.28999089631971 0.0 0.0 0.0 16.28999089631971 0.0 0.0 0.0 34.40785480372833" Properties=species:S:1:pos:R:3:initial_magmoms:R:1 pbc="T T T"
Si       1.35487188      -1.35559027      -1.35677129       0.00000000
Si      -1.35909099      -1.35557561       1.35787234       0.00000000
Si       1.35607734       1.35961227       1.35818201       0.00000000
Si      -1.36244673       1.36399428      -1.36365286       0.00000000
Si       2.71489140      -2.71178260       0.00127309       0.00000000
Si      -0.00099369      -2.71357458       2.71584791       0.00000000
Si      -2.71463076      -2.71496026       0.00006882       0.00000000
Si       2.71441899       0.00060273       2.71543501       0.00000000
Si      -2.71632492       0.00042354       2.71443718       0.00000000
Si       2.71443528       2.71653669      -0.00003441       0.00000000
