10
Lattice="16.28999089631971 0.0 0.0 0.0 16.28999089631971 0.0 0.0 0.0 34.40785480372833" Properties=species:S:1:pos:R:3:initial_magmoms:R:1 pbc="T T T"
Si       1.35628911       1.35599034       1.35714978       0.00000000
Si      -1.35852084      -1.35904671       1.35666807       0.00000000
Si      -1.36001952       1.35619234      -1.35804438       0.00000000
Si       1.35759231      -1.35888381      -1.35783793       0.00000000
Si      -2.69218314      -0.01020798      -2.72046888       0.00000000
Si       2.71419093       2.71232017      -0.00058493       0.00000000
Si      -0.00047241       2.71238533       2.71416192       0.00000000
Si      -2.71489140       2.71178260      -0.00127309       0.00000000
Si       2.71381626      -0.00117288       2.71368021       0.00000000
Si       2.71178001      -2.71629693      -0.00075697       0.00000000
