10
Lattice="16.28999089631971 0.0 0.0 0.0 16.28999089631971 0.0 0.0 0.0 34.40785480372833" Properties=species:S:1:pos:R:3:initial_magmoms:R:1 pbc="T T T"
Si       1.35676152      -1.35639500      -1.35701214       0.00000000
Si      -1.35863487      -1.35577435       1.35763149       0.00000000
Si       1.35679410       1.35909099       1.35866372       0.00000000
Si      -1.35834165       1.35900954      -1.35725300       0.00000000
Si       0.00047241      -2.71238533      -2.71416192       0.00000000
Si       2.71428867      -2.71355822      -0.00048171       0.00000000
Si       2.71466334      -0.00006516      -2.71474685       0.00000000
Si      -2.71541268      -2.71417731       0.00041289       0.00000000
Si      -2.71441899      -0.00060273      -2.71543501       0.00000000
Si       0.00027693      -2.71196378       2.71794679       0.00000000
