10
Lattice="16.28999089631971 0.0 0.0 0.0 16.28999089631971 0.0 0.0 0.0 34.40785480372833" Properties=species:S:1:pos:R:3:initial_magmoms:R:1 pbc="T T T"
Si       1.82120571      -1.47934607      -0.73440166       0.00000000
Si      -0.87902469      -1.22541755       2.11921537       0.00000000
Si      -1.78724106      -0.35935349      -1.99111485       0.00000000
Si       0.90730413       2.44671402      -2.22412498       0.00000000
Si       1.97842050       2.36298342       2.16979494       0.00000000
Si       0.65142081      -3.17868629      -2.11408860       0.00000000
Si       2.77457796      -2.38689455       1.34710268       0.00000000
Si       0.77186907      -2.96834981       2.44536761       0.00000000
Si      -3.75147297      -1.10782004      -0.67243308       0.00000000
Si      -3.17474181      -1.76192870       1.76330032       0.00000000
