10
Lattice="16.28999089631971 0.0 0.0 0.0 16.28999089631971 0.0 0.0 0.0 34.40785480372833" Properties=species:S:1:pos:R:3:initial_magmoms:R:1 pbc="T T T"
Si       1.23442362       1.15837408       1.61584335       0.00000000
Si      -1.04278806       1.74539563      -1.30426487       0.00000000
Si      -1.41685533      -1.45738845       1.42968299       0.00000000
Si       1.74195486      -1.05440643      -1.49815324       0.00000000
Si       2.88828216       2.21065432       0.30823954       0.00000000
Si      -2.69889462       0.75995815      -2.71904784       0.00000000
Si      -0.08050518       2.60237995       2.92825257       0.00000000
Si       2.85519717      -2.71064331      -0.12999295       0.00000000
Si      -2.95195977       2.63254903       0.00010322       0.00000000
Si       2.66333355      -0.14406811       2.93958308       0.00000000
