10
Lattice="16.28999089631971 0.0 0.0 0.0 16.28999089631971 0.0 0.0 0.0 34.40785480372833" Properties=species:S:1:pos:R:3:initial_magmoms:R:1 pbc="T T T"
Si      -1.88721279       0.93590937      -1.07197732       0.00000000
Si       1.64369358      -0.20989665      -1.73694389       0.00000000
Si      -0.56187468      -2.16271579       0.89305637       0.00000000
Si       1.09423188      -1.17727830       2.30783933       0.00000000
Si       2.41842969       0.85879251       1.60306285       0.00000000
Si       2.98877517       1.60629174      -1.00698084       0.00000000
Si      -2.74188393      -0.88456329      -2.33030768       0.00000000
Si      -0.81493983      -0.29012490       3.61220743       0.00000000
Si      -3.61268217       1.36106208       0.55568717       0.00000000
Si      -0.27956898      -3.77356940      -1.02012465       0.00000000
