10
Lattice="16.28999089631971 0.0 0.0 0.0 16.28999089631971 0.0 0.0 0.0 34.40785480372833" Properties=species:S:1:pos:R:3:initial_magmoms:R:1 pbc="T T T"
Si      -1.65610656      -0.98543749      -1.41478296       0.00000000
Si       1.04278806      -1.74539563       1.30426487       0.00000000
Si      -1.90917171       0.88715340       1.30436810       0.00000000
Si       1.32419781       2.03607081      -0.70477648       0.00000000
Si      -1.09423188       1.17727830      -2.30783933       0.00000000
Si      -0.44598762       2.19243852       2.69047007       0.00000000
Si       2.27721168      -0.58702155       2.92010822       0.00000000
Si      -3.66332778      -1.16923104      -0.10140000       0.00000000
Si       0.83929338       3.65734935       1.05508305       0.00000000
Si       2.78474292      -2.79980207      -0.19388837       0.00000000
