10
Lattice="16.28999089631971 0.0 0.0 0.0 16.28999089631971 0.0 0.0 0.0 34.40785480372833" Properties=species:S:1:pos:R:3:initial_magmoms:R:1 pbc="T T T"
Si       1.44189306       0.63830084      -1.74950276       0.00000000
Si       1.55406600       0.54344417       1.69699635       0.00000000
Si      -0.46517724      -2.32018211      -0.17682206       0.00000000
Si      -2.10655422       1.07629007      -0.19354429       0.00000000
Si       1.46644209      -2.95645322       0.97642665       0.00000000
Si       1.38152232      -1.50048560       2.80111062       0.00000000
Si      -0.11126070       1.93482194      -2.88530668       0.00000000
Si       2.29946382      -1.47165230      -2.30869953       0.00000000
Si       0.42663510      -2.87656706      -2.35470286       0.00000000
Si       0.89741610       2.71646501       2.44739767       0.00000000
