10
Lattice="16.28999089631971 0.0 0.0 0.0 16.28999089631971 0.0 0.0 0.0 34.40785480372833" Properties=species:S:1:pos:R:3:initial_magmoms:R:1 pbc="T T T"
Si      -1.17364563      -1.85324814       0.74358857       0.00000000
Si      -0.45703224       0.52921323      -2.23644300       0.00000000
Si      -1.58781888       1.38197844       1.06550864       0.00000000
Si       2.25544824       0.54600822       0.56126124       0.00000000
Si      -0.35653923       1.65726315       3.04970751       0.00000000
Si       2.15884854       2.86677936       0.38626279       0.00000000
Si      -2.73496068      -0.14750595      -2.35425556       0.00000000
Si      -0.42248115       2.86392861      -2.18328283       0.00000000
Si      -0.03284064      -3.71964883      -0.01968130       0.00000000
Si      -3.18186054      -1.81781739      -0.69958089       0.00000000
