10
Lattice="16.28999089631971 0.0 0.0 0.0 16.28999089631971 0.0 0.0 0.0 34.40785480372833" Properties=species:S:1:pos:R:3:initial_magmoms:R:1 pbc="T T T"
Si      -1.35692442       1.35731538      -1.35721859       0.00000000
Si      -1.35850455      -1.35654975       1.35714978       0.00000000
Si       1.35752715      -1.35705474      -1.35766589       0.00000000
Si       1.35777150       1.35703845       1.35759708       0.00000000
Si      -2.71419093       0.00045612       2.71010179       0.00000000
Si      -2.71433754       0.00175932      -2.71447159       0.00000000
Si      -2.71461447      -2.71420722      -0.00010322       0.00000000
Si       2.71463076      -0.00068418      -2.71464363       0.00000000
Si       2.71570590      -2.71406061      -0.00024086       0.00000000
Si      -0.00003258       2.71474479      -2.71505652       0.00000000
