10
Lattice="16.28999089631971 0.0 0.0 0.0 16.28999089631971 0.0 0.0 0.0 34.40785480372833" Properties=species:S:1:pos:R:3:initial_magmoms:R:1 pbc="T T T"
Si       0.52979967       1.08400176       2.07063145       0.00000000
Si      -0.60067420       1.63452231      -1.65756492       0.00000000
Si       0.36619920      -2.40152786      -0.58961333       0.00000000
Si      -2.13841178      -1.41790929       1.89129761       0.00000000
Si      -0.30109133      -0.75699467       3.35544009       0.00000000
Si       1.65187116       1.92077019      -2.52866907       0.00000000
Si      -3.20825753      -1.77211579      -0.43567250       0.00000000
Si       2.13597738      -2.29618043      -2.17495613       0.00000000
Si      -1.24753870       2.85226497       2.23157604       0.00000000
Si       2.30852106      -0.25225065      -3.27907040       0.00000000
