10
Lattice="16.28999089631971 0.0 0.0 0.0 16.28999089631971 0.0 0.0 0.0 34.40785480372833" Properties=species:S:1:pos:R:3:initial_magmoms:R:1 pbc="T T T"
Si       1.68163299       1.07171910      -1.40143271       0.00000000
Si      -1.82120571       1.47934607       0.73440166       0.00000000
Si       0.95337225      -0.90754848       2.08150434       0.00000000
Si      -1.16978490      -1.69934022      -1.37968693       0.00000000
Si      -1.04933664      -1.48900374       3.17976927       0.00000000
Si       0.26871984       2.41314914      -2.86910058       0.00000000
Si      -2.45969226      -0.30459042      -2.85767716       0.00000000
Si      -2.70023040       0.25392852       2.85361703       0.00000000
Si      -3.60844677       1.11999258      -1.25671319       0.00000000
Si       2.50543458      -2.66181858       1.66403360       0.00000000
