10
Lattice="16.28999089631971 0.0 0.0 0.0 16.28999089631971 0.0 0.0 0.0 34.40785480372833" Properties=species:S:1:pos:R:3:initial_magmoms:R:1 pbc="T T T"
Si       0.95860134       1.85148882      -1.07455791       0.00000000
Si      -2.24549505      -0.00685809       0.78394900       0.00000000
Si      -0.03275919      -2.03387166      -1.25636911       0.00000000
Si       1.51220070      -0.13484862       1.86311756       0.00000000
Si       3.22151040       1.16090685      -0.71458273       0.00000000
Si       0.55698768      -3.41482383       0.55479256       0.00000000
Si       2.45693925      -2.18997873       1.31028625       0.00000000
Si      -2.59512732       2.20168588       1.58537720       0.00000000
Si      -2.16573921      -2.01834729      -2.32266913       0.00000000
Si      -3.59495865      -0.56749473      -1.11306032       0.00000000
