10
Lattice="16.28999089631971 0.0 0.0 0.0 16.28999089631971 0.0 0.0 0.0 34.40785480372833" Properties=species:S:1:pos:R:3:initial_magmoms:R:1 pbc="T T T"
Si       0.94473855      -2.05513011      -0.55283131       0.00000000
Si      -0.86481981      -0.03528414       2.19329552       0.00000000
Si      -1.51220070       0.13484862      -1.86311756       0.00000000
Si       2.07638856       1.35974259      -0.00536763       0.00000000
Si       1.70930970       1.29575547      -2.57770029       0.00000000
Si       2.04848379      -1.18726407      -2.49240317       0.00000000
Si      -1.11285135       2.27181971       2.37885719       0.00000000
Si      -0.55359936       1.98633744      -2.93767547       0.00000000
Si       2.70808218       0.52962048       2.29958145       0.00000000
Si      -0.95521302      -3.27997521      -1.30832500       0.00000000
