10
Lattice="16.28999089631971 0.0 0.0 0.0 16.28999089631971 0.0 0.0 0.0 34.40785480372833" Properties=species:S:1:pos:R:3:initial_magmoms:R:1 pbc="T T T"
Si      -1.11433374       0.99505251      -1.85062750       0.00000000
Si      -1.49187078      -1.67397669       0.85149166       0.00000000
Si       2.28750696      -0.46120248      -0.61036128       0.00000000
Si      -0.28230570       1.61085361       1.91318102       0.00000000
Si       3.18845799      -1.40240610       1.35133484       0.00000000
Si      -3.25516554      -0.33091506       2.05442534       0.00000000
Si       0.35557812       0.75986336      -3.78638009       0.00000000
Si      -2.83608900      -0.44701389      -2.64352255       0.00000000
Si       3.47200173       1.68437364      -0.64707448       0.00000000
Si       0.27956898       3.77356940       1.02012465       0.00000000
