10
Lattice="16.28999089631971 0.0 0.0 0.0 16.28999089631971 0.0 0.0 0.0 34.40785480372833" Properties=species:S:1:pos:R:3:initial_magmoms:R:1 pbc="T T T"
Si       0.90095103      -0.94120362       1.96169612       0.00000000
Si      -2.28750696       0.46120248       0.61036128       0.00000000
Si       1.18449477       2.14557612      -0.03671320       0.00000000
Si       0.13038516      -1.59066963      -1.88097525       0.00000000
Si       2.12229378       1.57100013      -2.13500858       0.00000000
Si      -1.40475186      -3.46001229      -0.55083566       0.00000000
Si       1.88900469      -0.52113339      -3.25529455       0.00000000
Si      -3.40184070       1.45625499      -1.24026623       0.00000000
Si      -1.93192884       1.22106584      -3.17601881       0.00000000
Si      -1.68389730      -1.08603801      -3.36158048       0.00000000
