10
Lattice="16.28999089631971 0.0 0.0 0.0 16.28999089631971 0.0 0.0 0.0 34.40785480372833" Properties=species:S:1:pos:R:3:initial_magmoms:R:1 pbc="T T T"
Si      -1.42890993       1.30244219      -1.32373973       0.00000000
Si      -1.37008674      -1.33611005       1.36661194       0.00000000
Si       1.34491869       1.37920230       1.36826352       0.00000000
Si       1.49494959      -1.20704438      -1.52905840       0.00000000
Si       0.22494861       2.35472243      -2.63134354       0.00000000
Si       2.06304705       0.72300689      -2.89973876       0.00000000
Si       2.70827766      -2.69120999      -0.02651815       0.00000000
Si      -2.72575683      -2.68762619      -0.02285715       0.00000000
Si      -0.01589904      -2.69352317       2.72369290       0.00000000
Si       2.69924813       0.02149862       2.72338323       0.00000000
