10
Lattice="16.28999089631971 0.0 0.0 0.0 16.28999089631971 0.0 0.0 0.0 34.40785480372833" Properties=species:S:1:pos:R:3:initial_magmoms:R:1 pbc="T T T"
Si       1.16396937       0.08711892       2.06526382       0.00000000
Si      -1.17173970      -1.89264455      -1.03701892       0.00000000
Si       1.84269126       1.18068291      -1.16807851       0.00000000
Si      -1.92971340       1.66032567       0.21215895       0.00000000
Si       0.14273298       2.18704653      -2.51449303       0.00000000
Si      -0.31644954       2.01445398       2.83909691       0.00000000
Si      -2.58465285      -0.55121450      -2.50468678       0.00000000
Si       2.84781358      -0.52473185      -2.51611020       0.00000000
Si      -1.20524823       3.55452687      -1.05793890       0.00000000
Si       3.30941843       1.23460281       1.88486334       0.00000000
