10
Lattice="16.28999089631971 0.0 0.0 0.0 16.28999089631971 0.0 0.0 0.0 34.40785480372833" Properties=species:S:1:pos:R:3:initial_magmoms:R:1 pbc="T T T"
Si       1.05290415       1.30161335       1.58272780       0.00000000
Si      -2.21703642      -0.05100073      -0.66954282       0.00000000
Si       1.26705249      -0.70772394      -1.87423131       0.00000000
Si      -0.32855301      -1.77259376       1.60584989       0.00000000
Si       0.73252872      -3.24794648       0.16209549       0.00000000
Si       0.42785685      -2.87150087      -2.13029470       0.00000000
Si      -3.26691063       1.04462231       1.10817440       0.00000000
Si      -0.41850639       1.10241923       3.43624556       0.00000000
Si      -2.90131416      -2.33352362       0.10067744       0.00000000
Si       3.42224297      -1.12833499      -1.03364694       0.00000000
