10
Lattice="16.28999089631971 0.0 0.0 0.0 16.28999089631971 0.0 0.0 0.0 34.40785480372833" Properties=species:S:1:pos:R:3:initial_magmoms:R:1 pbc="T T T"
Si       2.21703642       0.05100073       0.66954282       0.00000000
Si      -1.04987421       1.09562305       1.77771722       0.00000000
Si      -0.26046081       1.44225796      -2.01709280       0.00000000
Si      -0.68427774      -2.28252289       0.77022026       0.00000000
Si      -2.94718680      -1.59194092       0.41024508       0.00000000
Si       1.88848341      -1.72159303       2.27539271       0.00000000
Si      -0.31662873       0.13371972       3.72024816       0.00000000
Si       3.48408891      -0.65672321      -1.20468849       0.00000000
Si      -3.29018904       0.35968972       1.76068532       0.00000000
Si      -0.43919469       3.37723303       1.76667229       0.00000000
