10
Lattice="16.28999089631971 0.0 0.0 0.0 16.28999089631971 0.0 0.0 0.0 34.40785480372833" Properties=species:S:1:pos:R:3:initial_magmoms:R:1 pbc="T T T"
Si       1.34830297      -1.34876313       1.35735622       0.00000000
Si      -1.35793440      -1.35459495      -1.35508530       0.00000000
Si       1.35560684       1.35988920      -1.35487886       0.00000000
Si      -1.35666378       1.35830907       1.36282707       0.00000000
Si      -0.00117288      -2.71322982      -2.71192541       0.00000000
Si       0.01619226      -2.69566920       2.72933579       0.00000000
Si       2.71453858       0.00193851      -2.71264797       0.00000000
Si       2.71523905      -2.71251306       0.00364723       0.00000000
Si      -2.71568961      -2.71225242       0.00392250       0.00000000
Si      -2.71611315       0.00241092      -2.71251034       0.00000000
