10
Lattice="16.28999089631971 0.0 0.0 0.0 16.28999089631971 0.0 0.0 0.0 34.40785480372833" Properties=species:S:1:pos:R:3:initial_magmoms:R:1 pbc="T T T"
Si       1.32067917      -0.72843993      -1.75280592       0.00000000
Si      -0.09659970       2.32077114      -0.17499845       0.00000000
Si      -2.25544824      -0.54600822      -0.56126124       0.00000000
Si       0.71454456      -0.51888537       2.22959583       0.00000000
Si      -1.43918892      -0.83266335       3.21534701       0.00000000
Si      -1.25229375       2.87195958       1.82681726       0.00000000
Si       3.43480581      -1.21425660      -0.62374594       0.00000000
Si      -2.61198747       1.11125493       2.48844627       0.00000000
Si       0.95301387      -2.99278251      -2.20516624       0.00000000
Si      -2.71248048      -0.01679499      -2.79770424       0.00000000
