10
Lattice="16.28999089631971 0.0 0.0 0.0 16.28999089631971 0.0 0.0 0.0 34.40785480372833" Properties=species:S:1:pos:R:3:initial_magmoms:R:1 pbc="T T T"
Si       1.34473950       1.35979146       1.39808482       0.00000000
Si      -1.37028222      -1.35540945       1.39842890       0.00000000
Si      -1.20427083       1.52510238      -1.42487823       0.00000000
Si       1.35317772      -1.43202132      -1.68851481       0.00000000
Si       2.68123626      -2.69734707       0.01914454       0.00000000
Si      -2.72818404      -2.69923671       0.00959980       0.00000000
Si       2.70873378       2.72284092       0.01097611       0.00000000
Si      -2.72530071       2.72642472       0.01463711       0.00000000
Si       2.70368388       0.00610875       2.76142802       0.00000000
Si      -0.01422117      -2.71065600       2.76135920       0.00000000
