10
Lattice="16.28999089631971 0.0 0.0 0.0 16.28999089631971 0.0 0.0 0.0 34.40785480372833" Properties=species:S:1:pos:R:3:initial_magmoms:R:1 pbc="T T T"
Si      -1.35777150      -1.35703845      -1.35759708       0.00000000
Si       1.35765747       1.35816246      -1.35735622       0.00000000
Si      -1.35583299       1.35811359       1.36251740       0.00000000
Si       1.35920502      -1.35819504       1.36007444       0.00000000
Si      -0.00024435      -2.71409319      -2.71526297       0.00000000
Si      -2.71469592       0.00027693      -2.71481567       0.00000000
Si      -2.71627605      -2.71358820      -0.00044730       0.00000000
Si      -2.71425609       2.71580364      -0.00013763       0.00000000
Si       0.00029322       2.71557558      -2.71488448       0.00000000
Si       2.71523349       0.00055386      -2.71567587       0.00000000
