10
Lattice="16.28999089631971 0.0 0.0 0.0 16.28999089631971 0.0 0.0 0.0 34.40785480372833" Properties=species:S:1:pos:R:3:initial_magmoms:R:1 pbc="T T T"
Si      -0.89565678       0.65443446       2.00164366       0.00000000
Si      -1.74539205      -1.00844874      -1.27687621       0.00000000
Si       1.04204037       1.75787019      -1.24873056       0.00000000
Si       1.77497047      -1.73035638       0.48528866       0.00000000
Si       1.34667705       1.61143938       2.72152520       0.00000000
Si       2.31059545       0.30429720      -2.55371800       0.00000000
Si      -0.41534613      -2.42261622      -2.54367090       0.00000000
Si       0.88598052      -3.58257825      -0.86869560       0.00000000
Si      -1.54183221      -1.24214508       3.25811600       0.00000000
Si       3.61151648      -0.97513569      -1.02421919       0.00000000
