10
Lattice="16.28999089631971 0.0 0.0 0.0 16.28999089631971 0.0 0.0 0.0 34.40785480372833" Properties=species:S:1:pos:R:3:initial_magmoms:R:1 pbc="T T T"
Si      -0.36504261       1.87072731      -1.37442253       0.00000000
Si       1.48237438      -0.93848319      -1.59769522       0.00000000
Si       0.78797892       1.26096003       1.88527623       0.00000000
Si      -1.96250517      -1.19101077       0.70377866       0.00000000
Si       3.14070290      -1.60669899      -0.08467778       0.00000000
Si      -1.44386415       3.24361593       0.16952760       0.00000000
Si      -1.04477544       2.67499719       2.35676733       0.00000000
Si      -3.71907216      -0.53664147      -0.85049383       0.00000000
Si       1.74849434       2.66976810      -2.18517526       0.00000000
Si       2.02468151      -3.04209234       1.41141099       0.00000000
