10
Lattice="16.28999089631971 0.0 0.0 0.0 16.28999089631971 0.0 0.0 0.0 34.40785480372833" Properties=species:S:1:pos:R:3:initial_magmoms:R:1 pbc="T T T"
Si      -1.07882154       1.37288862       1.54395012       0.00000000
Si       0.36504261      -1.87072731       1.37442253       0.00000000
Si       2.11353695       0.79904079      -0.81075274       0.00000000
Si      -1.51205409      -0.50037993      -1.89012774       0.00000000
Si       1.84741699      -2.80921050      -0.22327269       0.00000000
Si      -3.35163492      -0.21307320      -0.47269537       0.00000000
Si      -0.00407250       3.26114397       0.94229404       0.00000000
Si       1.15302153      -0.60976728       3.25969876       0.00000000
Si       2.49466756      -1.22999274      -2.17065514       0.00000000
Si      -0.86587866       1.39619961      -3.14660008       0.00000000
