10
Lattice="16.28999089631971 0.0 0.0 0.0 16.28999089631971 0.0 0.0 0.0 34.40785480372833" Properties=species:S:1:pos:R:3:initial_magmoms:R:1 pbc="T T T"
Si       1.66431672       1.59431859      -0.41089883       0.00000000
Si       0.21714570      -0.35969949       2.32624755       0.00000000
Si       0.72130491      -2.07837594      -0.89099190       0.00000000
Si      -2.13543981       0.39623796      -1.01066248       0.00000000
Si       3.27603533      -0.22849983      -0.65880756       0.00000000
Si       0.60720975       2.57913054      -2.31382631       0.00000000
Si      -2.31311484      -2.72403009       0.58775530       0.00000000
Si      -0.90538191      -2.47697595       2.51900046       0.00000000
Si      -1.70900019      -0.03430674      -3.30202045       0.00000000
Si      -1.15742079      -3.27521853      -1.41406040       0.00000000
