10
Lattice="16.28999089631971 0.0 0.0 0.0 16.28999089631971 0.0 0.0 0.0 34.40785480372833" Properties=species:S:1:pos:R:3:initial_magmoms:R:1 pbc="T T T"
Si       0.89565678      -0.65443446      -2.00164366       0.00000000
Si      -0.64617543      -1.89657954       1.25647234       0.00000000
Si      -1.55206233       1.75427010       0.41747074       0.00000000
Si       2.24233383       0.95700492       0.71988154       0.00000000
Si       0.55713429       2.24138997       1.79650392       0.00000000
Si       0.86587866      -1.39619961       3.14660008       0.00000000
Si      -0.84973527      -1.66288320      -3.27851987       0.00000000
Si       2.97941561      -0.59715882       2.33584734       0.00000000
Si       2.67062725      -2.38479084      -1.51635501       0.00000000
Si       1.93769715       1.10343573      -3.25037423       0.00000000
