10
Lattice="16.28999089631971 0.0 0.0 0.0 16.28999089631971 0.0 0.0 0.0 34.40785480372833" Properties=species:S:1:pos:R:3:initial_magmoms:R:1 pbc="T T T"
Si       0.67201137       2.03346441      -0.95636686       0.00000000
Si      -0.23964219      -1.68515163      -1.61565613       0.00000000
Si       1.05710697      -0.98481195       1.90292747       0.00000000
Si      -2.19905226       0.92001033       0.41131173       0.00000000
Si       1.04376546       1.15870770       2.95484500       0.00000000
Si      -0.60720975      -2.57913054       2.31382631       0.00000000
Si      -2.31620994      -2.61343728      -0.98819414       0.00000000
Si      -2.74264956      -2.18289258       1.30316382       0.00000000
Si      -0.62506359       2.24707518      -2.96079756       0.00000000
Si       0.07806168       3.74295886       0.58035761       0.00000000
