10
Lattice="16.28999089631971 0.0 0.0 0.0 16.28999089631971 0.0 0.0 0.0 34.40785480372833" Properties=species:S:1:pos:R:3:initial_magmoms:R:1 pbc="T T T"
Si      -1.34040636      -1.35114147      -1.38130410       0.00000000
Si       1.25516079      -1.49323914       1.35546379       0.00000000
Si       1.37235105       1.36290285      -1.38151055       0.00000000
Si      -1.37960010       1.43741331       1.50073383       0.00000000
Si       2.52685593      -0.08068437       2.78122287       0.00000000
Si      -2.68052113       2.71684620      -0.02876498       0.00000000
Si      -2.71216771      -2.69873172       0.01197394       0.00000000
Si      -2.69871054       0.00232947      -2.74313335       0.00000000
Si       2.73966849      -2.70633915      -0.02460163       0.00000000
Si       0.01736514      -2.71184517      -2.74258282       0.00000000
