10
Lattice="16.28999089631971 0.0 0.0 0.0 16.28999089631971 0.0 0.0 0.0 34.40785480372833" Properties=species:S:1:pos:R:3:initial_magmoms:R:1 pbc="T T T"
Si       1.15290846      -2.04841863      -0.27725865       0.00000000
Si      -2.18702209      -0.88798419       0.39125194       0.00000000
Si       0.22856499       1.39033521      -1.93898693       0.00000000
Si       1.19171124       1.08238905       1.78126123       0.00000000
Si      -1.95337625      -2.02292478       2.39967395       0.00000000
Si      -1.04951746       3.34451619      -1.56407873       0.00000000
Si       3.52991268       1.10460861       1.19367797       0.00000000
Si       1.32714630      -3.18041073       1.82127759       0.00000000
Si      -1.22650668       0.52082388      -3.67919956       0.00000000
Si      -2.97500102      -2.14894422      -1.49402430       0.00000000
