10
Lattice="16.28999089631971 0.0 0.0 0.0 16.28999089631971 0.0 0.0 0.0 34.40785480372833" Properties=species:S:1:pos:R:3:initial_magmoms:R:1 pbc="T T T"
Si      -1.70891452      -1.09287981       1.33627249       0.00000000
Si       0.96116050       1.58879628       1.58803835       0.00000000
Si      -0.19813136       0.74824857      -2.37094338       0.00000000
Si       1.82501268      -1.46210895      -1.09231237       0.00000000
Si      -1.68581530       2.58507639      -2.08828269       0.00000000
Si       2.72506776       2.62161486       0.51697009       0.00000000
Si       2.67645840      -2.69531082       0.68104576       0.00000000
Si      -0.38085598      -2.35820556       3.04393184       0.00000000
Si       2.34386547       0.34104744       3.07369809       0.00000000
Si       3.61536513       0.06867864      -1.81484332       0.00000000
