10
Lattice="16.28999089631971 0.0 0.0 0.0 16.28999089631971 0.0 0.0 0.0 34.40785480372833" Properties=species:S:1:pos:R:3:initial_magmoms:R:1 pbc="T T T"
Si      -0.70468911      -1.72245573      -1.55568321       0.00000000
Si       1.34428338       1.30893408      -1.57040978       0.00000000
Si       1.60819767      -0.47169324       1.86845078       0.00000000
Si      -2.20529882       0.20787669       1.31235072       0.00000000
Si      -0.18215478      -2.00248083       2.59098173       0.00000000
Si      -1.10433657      -0.20398338      -3.44818510       0.00000000
Si      -0.19520307      -3.60986400       0.88011901       0.00000000
Si       1.20842478      -3.05473338      -1.79956622       0.00000000
Si       3.61203057      -0.85555080       0.66383111       0.00000000
Si       3.58951779       0.91660572      -0.95760554       0.00000000
