10
Lattice="16.28999089631971 0.0 0.0 0.0 16.28999089631971 0.0 0.0 0.0 34.40785480372833" Properties=species:S:1:pos:R:3:initial_magmoms:R:1 pbc="T T T"
Si       1.18301238      -0.98225442       1.68832556       0.00000000
Si       1.42346907       1.29526549      -1.31097441       0.00000000
Si      -1.30304264      -1.41279912      -1.33595453       0.00000000
Si      -0.99840595      -1.55922993       2.63430124       0.00000000
Si       2.55368556      -2.61746091       0.34497335       0.00000000
Si      -0.04498809       2.58521553      -2.63013789       0.00000000
Si       2.67112017      -0.15752430      -2.63870545       0.00000000
Si       1.91891313       1.00527219       3.07537578       0.00000000
Si      -2.77385210      -0.14439456      -2.63103250       0.00000000
Si      -0.03448756      -2.86637211      -2.64094196       0.00000000
