10
Lattice="16.28999089631971 0.0 0.0 0.0 16.28999089631971 0.0 0.0 0.0 34.40785480372833" Properties=species:S:1:pos:R:3:initial_magmoms:R:1 pbc="T T T"
Si       1.87264953      -0.35691390       1.39682205       0.00000000
Si      -1.60813251       0.46304881       1.73219560       0.00000000
Si       0.54602451       2.15683577      -1.01231406       0.00000000
Si      -0.73590075      -1.98752661      -1.38705022       0.00000000
Si       1.30329774       1.25472163      -3.03663251       0.00000000
Si      -0.52940871       2.24341712       2.91266094       0.00000000
Si      -1.91891313      -1.00527219      -3.07537578       0.00000000
Si       1.67907546       1.27884712       3.13700028       0.00000000
Si       1.54183221      -2.47054140       2.46804240       0.00000000
Si       3.62895588      -1.14227109      -0.32728770       0.00000000
