10
Lattice="16.28999089631971 0.0 0.0 0.0 16.28999089631971 0.0 0.0 0.0 34.5300574570662" Properties=species:S:1:pos:R:3:initial_magmoms:R:1 pbc="T T T"
Si      -1.85579915      -1.15768306       1.01259588       0.00000000
Si       1.06319943       1.82501757       1.17863721       0.00000000
Si       0.47320821       1.74011409      -1.62172236       0.00000000
Si       1.38095217      -2.03458842      -0.26990438       0.00000000
Si       2.18774700       0.25495479       2.50753067       0.00000000
Si       2.34841527       0.49720338      -2.36857339       0.00000000
Si      -0.54081171      -2.45655548       2.50325930       0.00000000
Si       3.34642212      -1.18463649       1.00614912       0.00000000
Si       0.66872079      -2.82840731      -2.53891026       0.00000000
Si      -0.54292941       2.97891972       2.48395008       0.00000000
