10
Lattice="16.28999089631971 0.0 0.0 0.0 16.28999089631971 0.0 0.0 0.0 34.5300574570662" Properties=species:S:1:pos:R:3:initial_magmoms:R:1 pbc="T T T"
Si      -1.82438130      -0.19412793       1.49542856       0.00000000
Si       0.73772034      -1.94766402      -1.18776558       0.00000000
Si       2.02861813       1.31140202       0.35389876       0.00000000
Si      -2.08883316       0.85992466      -1.08327757       0.00000000
Si       1.05974432      -2.46516474       1.06224875       0.00000000
Si      -0.33254655       1.96544551      -2.32798324       0.00000000
Si      -1.32673809      -2.48837799       1.34788155       0.00000000
Si       2.35635664      -0.93033723      -2.50954239       0.00000000
Si       1.11300936       3.35110550      -0.73255558       0.00000000
Si       3.74667556       0.32482749      -1.10513511       0.00000000
