10
Lattice="16.28999089631971 0.0 0.0 0.0 16.28999089631971 0.0 0.0 0.0 34.5300574570662" Properties=species:S:1:pos:R:3:initial_magmoms:R:1 pbc="T T T"
Si      -1.33670853      -1.16926362      -1.67988823       0.00000000
Si      -1.80095724       1.35544203       0.95472209       0.00000000
Si       0.61268319      -1.94931027       1.35489115       0.00000000
Si       1.31672070       1.36831113      -1.63468836       0.00000000
Si       0.81722043       2.02105143       1.50634007       0.00000000
Si      -2.59889031      -2.70958412      -0.38293855       0.00000000
Si       2.51946027      -2.81046646       0.08756827       0.00000000
Si       2.69402391       0.80773965       2.56306401       0.00000000
Si       0.93670758      -1.01157642       3.57482979       0.00000000
Si      -0.82557720       2.10388608       3.16519949       0.00000000
