10
Lattice="16.28999089631971 0.0 0.0 0.0 16.28999089631971 0.0 0.0 0.0 34.5300574570662" Properties=species:S:1:pos:R:3:initial_magmoms:R:1 pbc="T T T"
Si      -2.02861813      -1.31140202      -0.35389876       0.00000000
Si       1.71805743      -0.98657453      -1.45903386       0.00000000
Si       0.91919583      -0.73684883       2.17142388       0.00000000
Si      -0.91560877       2.03970348      -1.08645433       0.00000000
Si       0.32855301       2.78326053       0.87882498       0.00000000
Si      -2.36116469       0.65404350      -2.68188200       0.00000000
Si       0.32773851      -2.24173925      -2.86344114       0.00000000
Si      -1.29089779      -3.25906604      -1.54166434       0.00000000
Si       3.32728137      -2.08639062       0.10296869       0.00000000
Si      -0.21369222      -2.63636450       2.91862021       0.00000000
