10
Lattice="16.28999089631971 0.0 0.0 0.0 16.28999089631971 0.0 0.0 0.0 34.5300574570662" Properties=species:S:1:pos:R:3:initial_magmoms:R:1 pbc="T T T"
Si       1.38323277      -0.43295562       1.79932777       0.00000000
Si       0.85843413       0.96565491      -1.93330447       0.00000000
Si      -0.42670026      -2.20345056      -0.68531843       0.00000000
Si      -1.88320545       1.19998656       0.86138729       0.00000000
Si       0.11707623      -2.11550899       2.80480907       0.00000000
Si      -3.18528144      -0.59590449       1.77843707       0.00000000
Si       1.45251414       3.21686775      -1.37854425       0.00000000
Si      -2.55767661      -2.33749608      -1.59197466       0.00000000
Si      -2.90382282       2.34743787      -0.96628967       0.00000000
Si      -0.66440394       0.94636755      -3.69979413       0.00000000
