10
Lattice="16.28999089631971 0.0 0.0 0.0 16.28999089631971 0.0 0.0 0.0 34.5300574570662" Properties=species:S:1:pos:R:3:initial_magmoms:R:1 pbc="T T T"
Si      -1.35076680       1.35695700       1.35868946       0.00000000
Si       1.38411243       1.34845362      -1.34143478       0.00000000
Si       1.36290285      -1.36155078       1.35806792       0.00000000
Si      -1.35014778      -1.36099692      -1.37806429       0.00000000
Si       0.25598106      -2.51489907      -2.68337715       0.00000000
Si       2.64815127      -0.08858502      -2.74544497       0.00000000
Si      -2.71055500       2.71072116      -0.00314224       0.00000000
Si      -2.71026993      -0.00177561       2.71589413       0.00000000
Si      -2.70714062      -2.72134224      -0.00117402       0.00000000
Si       0.00446346       2.71303434       2.71675738       0.00000000
