10
Lattice="16.28999089631971 0.0 0.0 0.0 16.28999089631971 0.0 0.0 0.0 34.5300574570662" Properties=species:S:1:pos:R:3:initial_magmoms:R:1 pbc="T T T"
Si       1.23748614      -1.39786119      -1.37321626       0.00000000
Si      -1.32665760      -1.36117611       1.34184569       0.00000000
Si       1.38544821       1.35799956       1.33607917       0.00000000
Si      -1.39968567       1.27000098      -1.40881332       0.00000000
Si       2.13084603       0.43694667      -2.62969635       0.00000000
Si       0.38449287       2.26851282      -2.68861122       0.00000000
Si      -2.66372451       2.70703962      -0.00480313       0.00000000
Si      -2.68493409      -0.00296478       2.69469957       0.00000000
Si      -2.66730831      -2.72637585      -0.01785205       0.00000000
Si       0.02720430      -2.71296918       2.69632248       0.00000000
