10
Lattice="16.28999089631971 0.0 0.0 0.0 16.28999089631971 0.0 0.0 0.0 34.5300574570662" Properties=species:S:1:pos:R:3:initial_magmoms:R:1 pbc="T T T"
Si      -1.35599589      -1.35493704      -1.35799886       0.00000000
Si       1.36106208      -1.35371529       1.35754997       0.00000000
Si      -1.35664749       1.36181142       1.35720467       0.00000000
Si       1.35852084       1.35985662      -1.35779168       0.00000000
Si      -2.71360449      -2.71180933       0.00013812       0.00000000
Si       0.00164529      -2.71230292      -2.71485822       0.00000000
Si      -2.71362078       0.00247608      -2.71596319       0.00000000
Si       2.71577106      -2.71394169       0.00010359       0.00000000
Si       2.71378368       2.71736748       0.00013812       0.00000000
Si       2.71665072       0.00182448      -2.71499634       0.00000000
