10
Lattice="16.28999089631971 0.0 0.0 0.0 16.28999089631971 0.0 0.0 0.0 34.5300574570662" Properties=species:S:1:pos:R:3:initial_magmoms:R:1 pbc="T T T"
Si      -1.35944937      -1.33682256      -1.37699040       0.00000000
Si      -1.41263622       1.38754962       1.29587925       0.00000000
Si       1.36078515       1.37578824      -1.37685228       0.00000000
Si       1.20822930      -1.53207450       1.46949648       0.00000000
Si       2.59450830       0.04090419       2.54686940       0.00000000
Si      -2.71567332      -2.69342118      -0.00628447       0.00000000
Si       2.69746110      -2.71943631       0.01246536       0.00000000
Si       2.68527618       2.74066218      -0.04782416       0.00000000
Si      -0.00280188      -2.69863398      -2.73419507       0.00000000
Si       2.71098180       0.01873350      -2.73405695       0.00000000
