10
Lattice="16.28999089631971 0.0 0.0 0.0 16.28999089631971 0.0 0.0 0.0 34.5300574570662" Properties=species:S:1:pos:R:3:initial_magmoms:R:1 pbc="T T T"
Si      -0.00591327       1.84982724      -1.42429661       0.00000000
Si       0.93538809       0.92017323       1.93765526       0.00000000
Si      -1.89413604      -1.36319607       0.44771698       0.00000000
Si       1.75637151      -1.26563526      -1.01466631       0.00000000
Si       0.03740184      -0.61377462       3.42092923       0.00000000
Si      -0.82974744      -2.52113488       2.30695443       0.00000000
Si       0.52724214       3.79706868      -0.07738190       0.00000000
Si       3.28082229       0.81407646       1.91220659       0.00000000
Si       1.63688436       1.76699259      -3.08315602       0.00000000
Si      -0.98129331       1.10138319      -3.63477400       0.00000000
