10
Lattice="16.28999089631971 0.0 0.0 0.0 16.28999089631971 0.0 0.0 0.0 34.5300574570662" Properties=species:S:1:pos:R:3:initial_magmoms:R:1 pbc="T T T"
Si       1.35765747      -1.35736425      -1.35734279       0.00000000
Si       1.35707103       1.35679410       1.35858587       0.00000000
Si      -1.35777150       1.35773892      -1.35713561       0.00000000
Si      -1.35905841      -1.35808101       1.35758450       0.00000000
Si      -0.00100998       2.71265967      -2.71478916       0.00000000
Si       2.71389771       0.00120546      -2.71361514       0.00000000
Si      -0.00048870      -2.71290402       2.71499634       0.00000000
Si      -2.71300176       0.00166158      -2.71520353       0.00000000
Si       2.71467963      -2.71485882       0.00000000       0.00000000
Si      -2.71539639      -2.71461447      -0.00027624       0.00000000
