10
Lattice="16.28999089631971 0.0 0.0 0.0 16.28999089631971 0.0 0.0 0.0 34.5300574570662" Properties=species:S:1:pos:R:3:initial_magmoms:R:1 pbc="T T T"
Si      -0.51950439       0.77432886       2.25153365       0.00000000
Si       0.73148616       1.81170864      -1.53938535       0.00000000
Si       1.66045599      -1.90957896      -0.36353265       0.00000000
Si      -2.03111865      -0.80685999      -1.48810819       0.00000000
Si      -2.88127746       0.70126821       2.01427750       0.00000000
Si       2.00634156       0.51772878      -3.03446862       0.00000000
Si       2.12162589       3.11497380      -0.12928061       0.00000000
Si      -1.36809936      -3.10278888       1.67425983       0.00000000
Si      -0.75399894      -2.18714427      -3.02994518       0.00000000
Si       3.31582950      -0.89466309      -1.70457724       0.00000000
