10
Lattice="16.28999089631971 0.0 0.0 0.0 16.28999089631971 0.0 0.0 0.0 34.5300574570662" Properties=species:S:1:pos:R:3:initial_magmoms:R:1 pbc="T T T"
Si       1.75040937      -0.50256279       1.58468881       0.00000000
Si       1.47587400       0.17884791      -1.90523151       0.00000000
Si      -1.65157794      -1.78419483       0.26429321       0.00000000
Si      -1.35951453       1.94955462       0.62392396       0.00000000
Si       2.31687783       2.02038354      -0.40742038       0.00000000
Si       0.58189509      -1.51547499       3.40836029       0.00000000
Si      -1.52280549      -2.33754984       2.56706950       0.00000000
Si       3.24827487      -1.96863021       0.40085966       0.00000000
Si      -0.13294269      -1.50891012      -3.52766170       0.00000000
Si      -3.72609315      -0.85416615      -0.38090128       0.00000000
