10
Lattice="16.28999089631971 0.0 0.0 0.0 16.28999089631971 0.0 0.0 0.0 34.5300574570662" Properties=species:S:1:pos:R:3:initial_magmoms:R:1 pbc="T T T"
Si       0.27456795       0.24267213       2.30982042       0.00000000
Si       1.70662185       1.41460731      -0.98997730       0.00000000
Si       0.10987605      -2.43463824      -0.17265038       0.00000000
Si      -2.07324459       1.18231191      -0.52499529       0.00000000
Si       0.53926416       2.51682129       2.50816119       0.00000000
Si      -1.79550009       1.69337808      -2.80798584       0.00000000
Si      -1.94572647      -3.07555200      -1.13089454       0.00000000
Si       0.58306797       3.60070902      -1.12502443       0.00000000
Si       2.31809958      -0.77644656       2.96468333       0.00000000
Si      -3.85029788       0.04540023       0.46757177       0.00000000
