10
Lattice="16.28999089631971 0.0 0.0 0.0 16.28999089631971 0.0 0.0 0.0 34.5300574570662" Properties=species:S:1:pos:R:3:initial_magmoms:R:1 pbc="T T T"
Si      -1.25770203      -0.73785555       1.83083098       0.00000000
Si       1.12185972      -1.96869537      -1.00579208       0.00000000
Si       1.22088663       1.59236379       1.47878994       0.00000000
Si      -2.67654474      -0.26754696      -0.89705686       0.00000000
Si      -2.38495374      -2.37208464       0.39709588       0.00000000
Si      -0.06779898      -2.20768596       3.15940331       0.00000000
Si       3.17107656       2.38317813       0.07752002       0.00000000
Si      -2.24867160       0.39539088      -3.27524684       0.00000000
Si       2.98041840      -2.64621276       0.47559522       0.00000000
Si      -0.53592471      -4.02097473       0.03011023       0.00000000
