10
Lattice="16.28999089631971 0.0 0.0 0.0 16.28999089631971 0.0 0.0 0.0 34.5300574570662" Properties=species:S:1:pos:R:3:initial_magmoms:R:1 pbc="T T T"
Si      -1.35485559       1.35408996       1.35468397       0.00000000
Si       1.35529542      -1.35685926       1.35889664       0.00000000
Si       1.35858600       1.35596331      -1.35689390       0.00000000
Si      -1.35671265      -1.35835794      -1.35710108       0.00000000
Si       0.01886382       2.67765246       2.72532084       0.00000000
Si      -2.69042219       0.00775404       2.73495473       0.00000000
Si      -0.03189582      -2.70485676       2.72083193       0.00000000
Si      -2.71308321       2.71388142       0.00003453       0.00000000
Si      -2.71428867      -0.00047241      -2.71458198       0.00000000
Si      -0.00058644       2.71467963      -2.71434027       0.00000000
