10
Lattice="16.28999089631971 0.0 0.0 0.0 16.28999089631971 0.0 0.0 0.0 34.5300574570662" Properties=species:S:1:pos:R:3:initial_magmoms:R:1 pbc="T T T"
Si       1.35772263       1.35745762      -1.35799886       0.00000000
Si      -1.35728280      -1.35826020      -1.35786074       0.00000000
Si      -1.35764118       1.35749457       1.36155546       0.00000000
Si       1.35874890      -1.36109466       1.35703202       0.00000000
Si      -2.69700498      -0.03657105       2.72435400       0.00000000
Si       2.71445157       2.71327447      -0.00034530       0.00000000
Si       2.71461447      -2.71433754      -0.00200274       0.00000000
Si       2.70883152       0.00612504       2.72027945       0.00000000
Si       0.01257588      -2.71420722       2.71534165       0.00000000
Si      -2.71586880      -2.71422351      -0.00096684       0.00000000
