10
Lattice="16.28999089631971 0.0 0.0 0.0 16.28999089631971 0.0 0.0 0.0 34.5300574570662" Properties=species:S:1:pos:R:3:initial_magmoms:R:1 pbc="T T T"
Si       1.27485540      -1.29397986      -1.49508326       0.00000000
Si       1.39013973       1.30326516       1.41010474       0.00000000
Si      -1.43472546       1.38365631      -1.48607091       0.00000000
Si      -0.73148616      -1.81170864       1.53938535       0.00000000
Si       2.56477905       2.69897607      -0.08991632       0.00000000
Si       2.58434334      -2.70637173      -0.16519189       0.00000000
Si       2.79643914      -0.48519765       2.46962562       0.00000000
Si      -2.76260481      -2.61856863       0.05127716       0.00000000
Si       2.62102842       0.05913270      -2.85339289       0.00000000
Si      -0.09829386      -2.65085541      -2.85249511       0.00000000
