10
Lattice="16.28999089631971 0.0 0.0 0.0 16.28999089631971 0.0 0.0 0.0 34.5300574570662" Properties=species:S:1:pos:R:3:initial_magmoms:R:1 pbc="T T T"
Si       0.68266503       0.07591140       2.22722448       0.00000000
Si       0.17456364       2.20591035      -0.78290043       0.00000000
Si       0.84220929      -1.57275063      -1.53945441       0.00000000
Si      -2.28113757      -0.46248939       0.53645927       0.00000000
Si      -1.09208160       1.62883710       2.75363550       0.00000000
Si      -1.15761627       3.13358417       0.90765760       0.00000000
Si      -1.11377988      -1.56470337      -2.96167921       0.00000000
Si       0.60667218      -2.35999746       2.64400251       0.00000000
Si      -3.40441452       0.91269612      -1.05247674       0.00000000
Si      -2.54583378      -2.73663855       0.33811851       0.00000000
