10
Lattice="16.28999089631971 0.0 0.0 0.0 16.28999089631971 0.0 0.0 0.0 34.5300574570662" Properties=species:S:1:pos:R:3:initial_magmoms:R:1 pbc="T T T"
Si      -1.05225255       1.09906905      -1.80678627       0.00000000
Si       1.81337022      -1.38772881      -0.81563494       0.00000000
Si      -2.11079304      -1.40349753       0.05314179       0.00000000
Si       1.05272496       1.80718884       1.61317613       0.00000000
Si       3.54473658      -0.41472711       0.67789447       0.00000000
Si       1.06210800      -3.49907571       0.02669175       0.00000000
Si      -3.01584915       2.00464970      -0.94954258       0.00000000
Si      -1.53049437      -0.49361958      -3.45093587       0.00000000
Si      -3.80267244       0.27350910       0.53725346       0.00000000
Si       2.12452551      -0.89264313      -3.12590426       0.00000000
