10
Lattice="16.28999089631971 0.0 0.0 0.0 16.28999089631971 0.0 0.0 0.0 34.5300574570662" Properties=species:S:1:pos:R:3:initial_magmoms:R:1 pbc="T T T"
Si       0.63066735       2.08758142      -0.92709803       0.00000000
Si       1.84042791      -0.13425566       1.53020035       0.00000000
Si      -1.93165191       0.55155822       1.35551269       0.00000000
Si      -0.35715825      -1.36105135      -2.00875269       0.00000000
Si       1.20228345       1.74314566       2.78616283       0.00000000
Si       1.29270924       3.29089114       0.98314035       0.00000000
Si       1.58350203      -2.19112459       2.59165491       0.00000000
Si      -2.61289971      -1.56451345       2.20063632       0.00000000
Si      -1.52309871      -3.45739516      -0.74267289       0.00000000
Si      -3.30310701       1.99049302       0.03577316       0.00000000
