10
Lattice="16.28999089631971 0.0 0.0 0.0 16.28999089631971 0.0 0.0 0.0 34.5300574570662" Properties=species:S:1:pos:R:3:initial_magmoms:R:1 pbc="T T T"
Si      -0.67645854       2.20990140      -0.25196597       0.00000000
Si       2.30448114      -0.11715768      -0.42844919       0.00000000
Si      -0.38951019      -0.33184359       2.29997935       0.00000000
Si      -0.82945422      -1.30874512      -1.85909933       0.00000000
Si      -0.10107945      -2.70078540       2.28623638       0.00000000
Si       2.39490693       1.43058780      -2.23147168       0.00000000
Si       0.45175428       2.88860796      -2.22435848       0.00000000
Si      -3.02189274       2.31599817      -0.22651730       0.00000000
Si      -2.20090932       0.13018968      -3.17883887       0.00000000
Si      -0.22499748       3.46367754       1.71193215       0.00000000
