10
Lattice="16.28999089631971 0.0 0.0 0.0 16.28999089631971 0.0 0.0 0.0 34.5300574570662" Properties=species:S:1:pos:R:3:initial_magmoms:R:1 pbc="T T T"
Si      -0.97156818       1.99793592      -0.80941953       0.00000000
Si      -0.45146106      -1.25377614      -1.96389812       0.00000000
Si       2.36307627      -0.02733462       0.67830883       0.00000000
Si      -1.57796343      -0.41112702       1.86607441       0.00000000
Si       1.70846262       0.83614941       2.75208165       0.00000000
Si       0.22916772      -0.93924882       3.24872774       0.00000000
Si      -2.79689526      -1.14767937      -1.93844945       0.00000000
Si      -2.17204344      -2.66233986       1.31131419       0.00000000
Si      -3.07626876       1.17586107      -1.65071032       0.00000000
Si       1.30220631      -2.82664080       2.22622311       0.00000000
