10
Lattice="16.28999089631971 0.0 0.0 0.0 16.28999089631971 0.0 0.0 0.0 34.5300574570662" Properties=species:S:1:pos:R:3:initial_magmoms:R:1 pbc="T T T"
Si      -1.35298224       1.35495333      -1.35834416       0.00000000
Si      -1.35624024      -1.35856971       1.35627235       0.00000000
Si       1.35897696       1.35620766       1.35641048       0.00000000
Si       1.35715248      -1.35708732      -1.36083032       0.00000000
Si      -2.69202024      -0.00804726      -2.70171262       0.00000000
Si      -0.02829573      -2.71508688      -2.69690949       0.00000000
Si       2.71788876       0.00900837      -2.69728587       0.00000000
Si      -2.71490769       2.71145421      -0.00117402       0.00000000
Si      -2.71389771      -0.00120546       2.71361514       0.00000000
Si       0.00110772       2.71401174       2.71361514       0.00000000
