10
Lattice="16.28999089631971 0.0 0.0 0.0 16.28999089631971 0.0 0.0 0.0 34.5300574570662" Properties=species:S:1:pos:R:3:initial_magmoms:R:1 pbc="T T T"
Si      -1.38153861      -1.35405738       1.32902812       0.00000000
Si      -1.35368271       1.35508365      -1.35889664       0.00000000
Si       1.36301688      -1.36197432      -1.35772262       0.00000000
Si       1.36658439       1.36348929       1.37274320       0.00000000
Si      -0.00622278      -2.64033207       2.66112943       0.00000000
Si       2.61500112      -0.08457768       2.79327603       0.00000000
Si      -2.70954828       2.70832653       0.00013812       0.00000000
Si      -2.70602964      -2.71893132       0.00000000       0.00000000
Si       2.71671588       2.70883152       0.00058701       0.00000000
Si      -2.71077003      -0.00342090      -2.71513447       0.00000000
