10
Lattice="16.28999089631971 0.0 0.0 0.0 16.28999089631971 0.0 0.0 0.0 34.5300574570662" Properties=species:S:1:pos:R:3:initial_magmoms:R:1 pbc="T T T"
Si       1.35368271      -1.35508365       1.35889664       0.00000000
Si      -1.35586557       1.35324288       1.35903476       0.00000000
Si       1.35785295       1.35645201      -1.35647954       0.00000000
Si      -1.35708732      -1.35850455      -1.35623782       0.00000000
Si      -0.02785590      -2.70914103       2.68792476       0.00000000
Si      -2.70203859       0.00013032       2.71734439       0.00000000
Si       2.71368594       2.71187775       0.00148479       0.00000000
Si       0.00070047       2.71355562      -2.71392591       0.00000000
Si      -2.71432125      -0.00138465      -2.71358061       0.00000000
Si       2.71487511      -0.00097740      -2.71392591       0.00000000
