10
Lattice="16.28999089631971 0.0 0.0 0.0 16.28999089631971 0.0 0.0 0.0 34.5300574570662" Properties=species:S:1:pos:R:3:initial_magmoms:R:1 pbc="T T T"
Si      -1.76764419      -1.04311386      -1.16549368       0.00000000
Si       1.05034662       1.81781739      -1.08728306       0.00000000
Si      -1.55554839       1.17806022       1.46932383       0.00000000
Si       1.71740583      -1.90557162       0.28749742       0.00000000
Si       2.34517356       0.37755333      -2.48108961       0.00000000
Si      -0.40294944      -2.33999334      -2.52480468       0.00000000
Si      -0.36168687      -1.96687089       2.96979378       0.00000000
Si       2.38236363       3.02459688       0.57841332       0.00000000
Si       3.59359029      -1.07051364      -1.06055678       0.00000000
Si      -0.48000114       1.84948515       3.42358805       0.00000000
