10
Lattice="16.28999089631971 0.0 0.0 0.0 16.28999089631971 0.0 0.0 0.0 34.5300574570662" Properties=species:S:1:pos:R:3:initial_magmoms:R:1 pbc="T T T"
Si       0.54514485      -1.92538026       1.32384861       0.00000000
Si       1.21891554       1.92795408       0.78915037       0.00000000
Si      -2.26211085       0.89423955      -0.13939792       0.00000000
Si       0.67667031      -0.86306049      -2.20857824       0.00000000
Si      -0.61445880      -0.26634150       2.77194753       0.00000000
Si      -1.51084863       3.00558645      -0.98172461       0.00000000
Si      -2.36540574       1.48447512       2.34877035       0.00000000
Si      -0.25495479      -3.66757947      -0.18204256       0.00000000
Si       1.50390909      -2.98797696      -1.69770575       0.00000000
Si      -1.31401656      -1.56467079      -3.32676571       0.00000000
