10
Lattice="16.28999089631971 0.0 0.0 0.0 16.28999089631971 0.0 0.0 0.0 34.5300574570662" Properties=species:S:1:pos:R:3:initial_magmoms:R:1 pbc="T T T"
Si      -1.80542070       0.39312657       1.43517358       0.00000000
Si       0.68124780       2.11607167      -0.84512363       0.00000000
Si      -0.85735899      -1.67022999      -1.47916490       0.00000000
Si       1.92982743      -0.58376844       1.32788863       0.00000000
Si       1.40962257       0.72403139       3.30021209       0.00000000
Si       1.08980100      -1.89288171      -2.94330921       0.00000000
Si      -0.83929338       0.12937518       3.59465005       0.00000000
Si       2.61289971       1.56451345      -2.20063632       0.00000000
Si      -3.25119078      -1.45513683       1.28082414       0.00000000
Si       1.51070202       3.42481679       1.01397570       0.00000000
