10
Lattice="16.28999089631971 0.0 0.0 0.0 16.28999089631971 0.0 0.0 0.0 34.5300574570662" Properties=species:S:1:pos:R:3:initial_magmoms:R:1 pbc="T T T"
Si       1.35697329       1.35802725      -1.35782621       0.00000000
Si       1.35674523      -1.35749995       1.35858587       0.00000000
Si      -1.35855342      -1.35921709      -1.35571987       0.00000000
Si      -1.35804843       1.35690324       1.35872399       0.00000000
Si       2.71420722      -2.71461025       0.00044889       0.00000000
Si       2.71427238       2.71462587      -0.00003453       0.00000000
Si      -2.71510317       2.71415346       0.00093231       0.00000000
Si      -0.00092853       2.71399056       2.71592866       0.00000000
Si       2.71419093      -0.00212096       2.71603225       0.00000000
Si      -2.71511946      -2.71566910       0.00044889       0.00000000
