10
Lattice="16.28999089631971 0.0 0.0 0.0 16.28999089631971 0.0 0.0 0.0 34.5300574570662" Properties=species:S:1:pos:R:3:initial_magmoms:R:1 pbc="T T T"
Si      -1.35744570      -1.35537899      -1.35744638       0.00000000
Si       1.35705474      -1.35266526       1.36058861       0.00000000
Si       1.35803485       1.35977354      -1.35717014       0.00000000
Si      -1.35716877       1.36112561       1.36221153       0.00000000
Si       0.00001629      -2.71248930      -2.71558336       0.00000000
Si       2.71641356      -2.71310832      -0.00058701       0.00000000
Si      -2.71419093       0.00212096      -2.71603225       0.00000000
Si      -0.01682757      -2.70341577       2.72725452       0.00000000
Si       2.71543127       0.00135044      -2.71558336       0.00000000
Si      -2.71511946       2.71611152      -0.00010359       0.00000000
