10
Lattice="16.28999089631971 0.0 0.0 0.0 16.28999089631971 0.0 0.0 0.0 34.5300574570662" Properties=species:S:1:pos:R:3:initial_magmoms:R:1 pbc="T T T"
Si      -1.35795069       1.35498591      -1.36231512       0.00000000
Si       1.35716877      -1.36112561      -1.36221153       0.00000000
Si       1.37166687       1.35531171       1.35433867       0.00000000
Si      -1.38080556      -1.36727997       1.37150012       0.00000000
Si       2.71305562       2.71350675      -0.00414361       0.00000000
Si       2.71422351      -2.71379087      -0.00162291       0.00000000
Si      -2.71508688       2.71397916       0.00307318       0.00000000
Si      -2.71313208      -2.71607147      -0.00455797       0.00000000
Si       0.00039096       2.71365336      -2.71965791       0.00000000
Si       2.71520362      -0.00135207      -2.71938166       0.00000000
