10
Lattice="16.28999089631971 0.0 0.0 0.0 16.28999089631971 0.0 0.0 0.0 34.5300574570662" Properties=species:S:1:pos:R:3:initial_magmoms:R:1 pbc="T T T"
Si      -0.25692588      -2.05686892       1.06145456       0.00000000
Si      -0.63814446       1.87740132       1.25596248       0.00000000
Si      -1.84042791       0.13425566      -1.53020035       0.00000000
Si       2.29035771       0.56254094      -0.52168040       0.00000000
Si       2.03980122      -0.09221443      -2.85163186       0.00000000
Si      -0.54771867       3.42514680      -0.54706001       0.00000000
Si      -1.20976056       2.22183708      -2.45729838       0.00000000
Si       1.42091154      -2.01249496       2.74966454       0.00000000
Si       0.76924638       1.87018485       3.17317593       0.00000000
Si      -2.52350019      -2.01402622       1.99832460       0.00000000
