10
Lattice="16.28999089631971 0.0 0.0 0.0 16.28999089631971 0.0 0.0 0.0 34.5300574570662" Properties=species:S:1:pos:R:3:initial_magmoms:R:1 pbc="T T T"
Si       1.32506118       1.35483930       1.36338555       0.00000000
Si      -1.35612621       1.35609363      -1.35271576       0.00000000
Si      -1.34633592      -1.34956134       1.37112029       0.00000000
Si       1.35809730      -1.35726651      -1.35288841       0.00000000
Si      -2.72536587       0.07773588       2.66613629       0.00000000
Si       2.60312571       0.05471811       2.81319988       0.00000000
Si      -2.71469592      -0.00047241      -2.70985136       0.00000000
Si       0.00040725      -2.71495656      -2.70967871       0.00000000
Si       0.00013032       2.71472850      -2.71026572       0.00000000
Si       2.71516833      -0.00071676      -2.71016213       0.00000000
