10
Lattice="16.28999089631971 0.0 0.0 0.0 16.28999089631971 0.0 0.0 0.0 34.5300574570662" Properties=species:S:1:pos:R:3:initial_magmoms:R:1 pbc="T T T"
Si      -1.35711990      -1.35708732      -1.35720467       0.00000000
Si       1.35834165       1.35866745      -1.35734279       0.00000000
Si       1.35795069      -1.35498591       1.36231512       0.00000000
Si      -1.35713619       1.35899325       1.36538830       0.00000000
Si      -2.71417464       0.00016290      -2.71499634       0.00000000
Si       0.00092853      -2.71399056      -2.71592866       0.00000000
Si      -2.71505430      -2.71560327       0.00010359       0.00000000
Si       2.71520091       0.00063531      -2.71596319       0.00000000
Si       2.71511946      -2.71611152       0.00010359       0.00000000
Si       0.00078192       2.71619460      -2.71547977       0.00000000
