10
Lattice="16.28999089631971 0.0 0.0 0.0 16.28999089631971 0.0 0.0 0.0 34.5300574570662" Properties=species:S:1:pos:R:3:initial_magmoms:R:1 pbc="T T T"
Si      -2.12116977      -1.06047900      -0.02648457       0.00000000
Si      -0.79552215       2.15625843       0.95271935       0.00000000
Si       0.02054169       0.11178198      -2.49462540       0.00000000
Si       1.54119690      -1.77603354       0.84287917       0.00000000
Si       3.55125162       0.87605991      -0.83207126       0.00000000
Si      -2.21159556      -2.60822448       1.77653792       0.00000000
Si      -3.04626258       2.51739144       0.09999910       0.00000000
Si       0.71690661      -3.92308486      -0.00110496       0.00000000
Si       3.82717979      -1.08522351       0.45517547       0.00000000
Si      -0.89269200      -2.00609721      -3.36599188       0.00000000
