10
Lattice="16.28999089631971 0.0 0.0 0.0 16.28999089631971 0.0 0.0 0.0 34.5300574570662" Properties=species:S:1:pos:R:3:initial_magmoms:R:1 pbc="T T T"
Si       1.34107425       1.36980981       1.38646545       0.00000000
Si      -1.36756179      -1.35037584       1.38736324       0.00000000
Si      -1.48805892       1.28555793      -1.36527089       0.00000000
Si       1.50876351      -1.32756984      -1.53953383       0.00000000
Si       0.08053776       2.52490113      -2.61735185       0.00000000
Si      -0.14582808      -2.52582966      -2.82224818       0.00000000
Si       2.69408907       2.71230129       0.01759653       0.00000000
Si       2.71024461      -2.70594819       0.00284528       0.00000000
Si      -2.72621295      -2.69682579       0.05004444       0.00000000
Si       2.70209496       0.01027899       2.74598364       0.00000000
