10
Lattice="16.28999089631971 0.0 0.0 0.0 16.28999089631971 0.0 0.0 0.0 34.5300574570662" Properties=species:S:1:pos:R:3:initial_magmoms:R:1 pbc="T T T"
Si      -1.70900019      -1.07675271      -1.19960940       0.00000000
Si       1.04583429       1.70082261      -1.27333111       0.00000000
Si      -1.43677800       1.38469887       1.49173385       0.00000000
Si       1.81704266      -1.72310733       0.07707113       0.00000000
Si      -0.27979704      -2.35540368      -2.63450674       0.00000000
Si       2.49140142       0.37077669      -2.61579143       0.00000000
Si       0.11837943       2.77992108       2.55822980       0.00000000
Si       3.02264927       0.54657837       2.41430844       0.00000000
Si      -2.95741692       0.37131426      -2.62014222       0.00000000
Si       0.99826749      -3.65552487      -1.18469240       0.00000000
