10
Lattice="16.28999089631971 0.0 0.0 0.0 16.28999089631971 0.0 0.0 0.0 34.5300574570662" Properties=species:S:1:pos:R:3:initial_magmoms:R:1 pbc="T T T"
Si      -1.09665094       1.16510967       1.76168999       0.00000000
Si       2.18743749       0.29519109      -1.00019820       0.00000000
Si      -1.24416178      -0.74355705      -1.96527932       0.00000000
Si      -0.32855301      -2.78326053      -0.87882498       0.00000000
Si      -0.82072278      -0.79617375       3.04893672       0.00000000
Si       1.23908256       2.05366401      -2.26458602       0.00000000
Si       3.16281753       1.04363514       1.21027919       0.00000000
Si       0.04856049       0.47925180      -3.59143875       0.00000000
Si       0.73353870       3.66955056      -0.36878122       0.00000000
Si       0.59064282      -3.52010936       1.29259889       0.00000000
