10
Lattice="16.28999089631971 0.0 0.0 0.0 16.28999089631971 0.0 0.0 0.0 34.5300574570662" Properties=species:S:1:pos:R:3:initial_magmoms:R:1 pbc="T T T"
Si      -1.04774022      -1.80603972       1.06653048       0.00000000
Si       2.22174164      -0.66849273       0.39181278       0.00000000
Si      -0.78395625       1.96138116       1.04229037       0.00000000
Si      -1.17763668      -0.11357388      -2.08741220       0.00000000
Si      -2.61731430      -0.68913216       2.40115248       0.00000000
Si       2.43676476      -0.11604996       2.71838029       0.00000000
Si      -3.04864092       1.47981618       1.62588319       0.00000000
Si      -0.50945346       3.75971571      -0.40237898       0.00000000
Si      -0.13416444      -1.83278790      -3.45128117       0.00000000
Si      -1.25468838      -3.73357026      -0.31270438       0.00000000
