10
Lattice="16.28999089631971 0.0 0.0 0.0 16.28999089631971 0.0 0.0 0.0 34.5300574570662" Properties=species:S:1:pos:R:3:initial_magmoms:R:1 pbc="T T T"
Si      -0.91388529       0.33018201      -2.10947692       0.00000000
Si       1.34958319      -1.92536397       0.00120855       0.00000000
Si      -1.73447775      -0.47534220       1.55302473       0.00000000
Si       1.13156597       1.88607249       0.95610330       0.00000000
Si      -0.60087294       1.48898745       2.59776673       0.00000000
Si       3.38322842      -0.75269574      -0.45759258       0.00000000
Si       0.79492498      -2.73826755      -2.17128576       0.00000000
Si       3.30089876       0.95625558       1.22599038       0.00000000
Si       0.86774454       1.34895861      -3.31823679       0.00000000
Si      -2.99063223       1.39070988      -1.64749902       0.00000000
