10
Lattice="16.28999089631971 0.0 0.0 0.0 16.28999089631971 0.0 0.0 0.0 34.5300574570662" Properties=species:S:1:pos:R:3:initial_magmoms:R:1 pbc="T T T"
Si      -1.24321600       2.01214080       0.21118595       0.00000000
Si      -0.86333320      -1.93675068      -1.08524578       0.00000000
Si       1.79402910       0.19230345      -1.59894973       0.00000000
Si       0.96517598       0.05901867       2.20999397       0.00000000
Si       0.66187084       3.33552411      -0.20324403       0.00000000
Si       3.31686717      -0.99178407      -0.19367920       0.00000000
Si      -0.00214213      -1.71589086       3.31212496       0.00000000
Si       0.53520958      -3.72724322      -0.32831197       0.00000000
Si       2.15993508       2.51296056      -1.81869914       0.00000000
Si       3.29132445      -0.03769506       1.91058368       0.00000000
