10
Lattice="16.28999089631971 0.0 0.0 0.0 16.28999089631971 0.0 0.0 0.0 34.5300574570662" Properties=species:S:1:pos:R:3:initial_magmoms:R:1 pbc="T T T"
Si      -0.99839781       2.05063407      -0.27734558       0.00000000
Si       2.32964919       0.19059300      -0.32392665       0.00000000
Si      -1.21891554      -1.92795408      -0.78915037       0.00000000
Si       1.39346289       0.20443950       1.97853373       0.00000000
Si      -0.17513379      -1.03490370       3.23061468       0.00000000
Si      -2.72976417       1.07763237      -1.77087499       0.00000000
Si      -1.83337434      -2.19429558       1.98279716       0.00000000
Si      -3.48102639      -1.03371453      -0.92854829       0.00000000
Si       2.59478523       1.26913761      -2.54624786       0.00000000
Si       3.38414976      -1.89853434      -0.42137053       0.00000000
