10
Lattice="16.28999089631971 0.0 0.0 0.0 16.28999089631971 0.0 0.0 0.0 34.5300574570662" Properties=species:S:1:pos:R:3:initial_magmoms:R:1 pbc="T T T"
Si       0.02554272      -0.95408901      -2.10426288       0.00000000
Si      -2.32614847       0.09671373       0.29941030       0.00000000
Si       0.71938269       2.19768390      -0.56988439       0.00000000
Si       1.02061737      -1.14745131       1.82767696       0.00000000
Si      -1.36557441       3.20189724      -0.09968833       0.00000000
Si       2.65658949       2.54563830       0.76767267       0.00000000
Si       2.23941888      -1.40107032      -2.73350447       0.00000000
Si      -3.29132445       0.03769506      -1.91058368       0.00000000
Si      -1.49729535       0.22999851      -3.50953341       0.00000000
Si      -2.89375723       2.13682446       1.34270203       0.00000000
