10
Lattice="16.28999089631971 0.0 0.0 0.0 16.28999089631971 0.0 0.0 0.0 34.5300574570662" Properties=species:S:1:pos:R:3:initial_magmoms:R:1 pbc="T T T"
Si      -0.96731812      -1.77490953       1.10213099       0.00000000
Si       2.32614847      -0.09671373      -0.29941030       0.00000000
Si      -0.56760876       2.04011073       1.04329174       0.00000000
Si      -0.96517598      -0.05901867      -2.20999397       0.00000000
Si       0.96057406       3.10518351      -0.39909863       0.00000000
Si       2.35169119      -1.05080274      -2.40367317       0.00000000
Si      -2.20839199       1.95312213      -1.99880802       0.00000000
Si      -3.29501644      -1.41910335       0.93517807       0.00000000
Si       3.04553116       2.10097017      -0.86929468       0.00000000
Si      -0.64892030      -3.77612300      -0.13946698       0.00000000
