10
Lattice="16.28999089631971 0.0 0.0 0.0 16.28999089631971 0.0 0.0 0.0 34.5300574570662" Properties=species:S:1:pos:R:3:initial_magmoms:R:1 pbc="T T T"
Si       1.27711971      -1.38028428      -1.54183699       0.00000000
Si      -1.38140666       1.33232652      -1.52771419       0.00000000
Si      -2.05576542      -0.76155750       1.16514838       0.00000000
Si       2.03111865       0.80685999       1.48810819       0.00000000
Si       2.61373050      -2.73779514      -0.23207665       0.00000000
Si       2.76260481       2.61856863      -0.05127716       0.00000000
Si      -2.82697379       2.66237244      -0.18525386       0.00000000
Si      -0.85015881       1.50812820       3.50238569       0.00000000
Si      -2.87454059      -2.69397504      -0.09661515       0.00000000
Si       2.66431095      -0.03228678      -2.90377227       0.00000000
