10
Lattice="16.28999089631971 0.0 0.0 0.0 16.28999089631971 0.0 0.0 0.0 34.5300574570662" Properties=species:S:1:pos:R:3:initial_magmoms:R:1 pbc="T T T"
Si       1.35382117      -1.35622395       1.35903476       0.00000000
Si       1.35685111       1.35653346      -1.35872399       0.00000000
Si      -1.35760493      -1.35824391      -1.35772262       0.00000000
Si      -1.35975293       1.35661491       1.35751544       0.00000000
Si      -2.70114168      -0.00158013       2.71599772       0.00000000
Si       2.71318909       2.71306692      -0.00086325       0.00000000
Si      -2.71472754       2.71445157      -0.00120855       0.00000000
Si       2.71480181      -2.71537684      -0.00051795       0.00000000
Si      -0.00025738       2.71407690      -2.71644661       0.00000000
Si       2.71478551      -0.00109143      -2.71661926       0.00000000
