10
Lattice="16.28999089631971 0.0 0.0 0.0 16.28999089631971 0.0 0.0 0.0 34.5300574570662" Properties=species:S:1:pos:R:3:initial_magmoms:R:1 pbc="T T T"
Si       1.35701004      -1.35677781      -1.35696296       0.00000000
Si      -1.35891482      -1.35549090       1.35841322       0.00000000
Si       1.35821550       1.35757602       1.35765356       0.00000000
Si      -1.35818177       1.35819504      -1.35734279       0.00000000
Si      -0.00020729      -2.71282257      -2.71461651       0.00000000
Si      -2.71494329      -0.00078192      -2.71271736       0.00000000
Si       2.71644312      -0.00221544       2.71230300       0.00000000
Si       0.00011101       2.71409319      -2.71489275       0.00000000
Si       2.71401591       0.00078192      -2.71499634       0.00000000
Si       2.71458606      -2.71466334       0.00051795       0.00000000
