10
Lattice="16.28999089631971 0.0 0.0 0.0 16.28999089631971 0.0 0.0 0.0 34.5300574570662" Properties=species:S:1:pos:R:3:initial_magmoms:R:1 pbc="T T T"
Si       0.51778742      -2.25655596       0.14171143       0.00000000
Si      -0.32202398       0.51750072      -2.25001433       0.00000000
Si      -2.38648241      -0.02321325       0.28563279       0.00000000
Si       0.75518159       1.14020226       2.21027021       0.00000000
Si      -1.05974432       2.46516474      -1.06224875       0.00000000
Si      -2.21786462      -0.82282419       2.41682913       0.00000000
Si      -0.59819486      -2.59897176       2.19638912       0.00000000
Si       2.87956049      -2.18349531       0.37896759       0.00000000
Si      -2.88412562       2.27103681       0.43317981       0.00000000
Si      -1.25337606       1.07644320       3.44451328       0.00000000
