10
Lattice="16.28999089631971 0.0 0.0 0.0 16.28999089631971 0.0 0.0 0.0 34.5300574570662" Properties=species:S:1:pos:R:3:initial_magmoms:R:1 pbc="T T T"
Si       1.13288805       1.89951567      -0.74719633       0.00000000
Si      -2.00855765      -0.06375906       1.23424306       0.00000000
Si       1.60086717      -1.49022549       0.97782271       0.00000000
Si      -0.75518159      -1.14020226      -2.21027021       0.00000000
Si      -2.97304622      -1.96302645       0.20655892       0.00000000
Si       3.23206632      -1.33859817      -0.80247898       0.00000000
Si       0.52779600      -3.56967657       1.34284015       0.00000000
Si      -3.14166401      -1.16341551      -1.92463742       0.00000000
Si       1.81683999       3.25023686       1.04249755       0.00000000
Si      -3.38875073       1.78558992       0.55286106       0.00000000
