10
Lattice="10.86 0.0 0.0 0.0 10.86 0.0 0.0 0.0 10.86" Properties=species:S:1:pos:R:3:initial_magmoms:R:1 pbc="T T T"
Si      -1.16985006       1.30549146      -1.35189624       0.00000000
Si       1.54514994       1.30549146       1.36310376       0.00000000
Si       1.54514994      -1.40950854      -1.35189624       0.00000000
Si      -2.52735006       2.66299146       0.00560376       0.00000000
Si      -2.39549880      -0.04439568       2.81673648       0.00000000
Si      -2.50767174      -0.29331774      -2.79438660       0.00000000
Si       0.18764994       2.66299146      -2.70939624       0.00000000
Si       0.18764994       2.66299146       2.72060376       0.00000000
Si       0.12837606      -2.99089830      -2.49440082       0.00000000
Si       2.90264994       2.66299146       0.00560376       0.00000000
