10
Lattice="16.28999089631971 0.0 0.0 0.0 16.28999089631971 0.0 0.0 0.0 34.2284985734139" Properties=species:S:1:pos:R:3:initial_magmoms:R:1 pbc="T T T"
Si      -1.41858207       1.27701057       1.34610492       0.00000000
Si       1.34099280       1.36254936      -1.36424603       0.00000000
Si      -1.37526696      -1.35314744      -1.35897484       0.00000000
Si       1.22504058      -1.48447742       1.42958827       0.00000000
Si      -2.25155493      -0.69404197       2.49077500       0.00000000
Si      -0.61633215      -2.53902686       2.65976120       0.00000000
Si       2.69162928       2.69859000       0.00883096       0.00000000
Si       2.68773597      -2.72009021       0.01324644       0.00000000
Si       2.69316054       0.00514601      -2.72017453       0.00000000
Si      -0.01928736      -2.71233617      -2.71928459       0.00000000
