10
Lattice="16.28999089631971 0.0 0.0 0.0 16.28999089631971 0.0 0.0 0.0 34.2284985734139" Properties=species:S:1:pos:R:3:initial_magmoms:R:1 pbc="T T T"
Si       1.40743971       1.35728280       1.25191933       0.00000000
Si      -0.93271653       1.64913444      -1.34590677       0.00000000
Si      -1.55097090      -1.41757209       1.06553136       0.00000000
Si       1.02123639      -1.42192152      -1.61343687       0.00000000
Si      -0.96275529      -1.98224865      -2.86476302       0.00000000
Si      -2.16979542       0.18567342      -2.89522640       0.00000000
Si       2.69074962       2.39583546      -0.47431180       0.00000000
Si       2.57751783      -0.14915124       2.56329599       0.00000000
Si      -0.14638194       2.58660765       2.56067409       0.00000000
Si      -2.72631069       2.54194047      -0.13521524       0.00000000
