10
Lattice="16.28999089631971 0.0 0.0 0.0 16.28999089631971 0.0 0.0 0.0 34.2284985734139" Properties=species:S:1:pos:R:3:initial_magmoms:R:1 pbc="T T T"
Si       1.17007812      -1.50643404       1.31137666       0.00000000
Si      -1.40743971      -1.35728280      -1.25191933       0.00000000
Si      -1.55382165       1.22932485       1.30875476       0.00000000
Si       1.28330991       1.03855266      -1.72623113       0.00000000
Si      -2.34015624       0.29185164      -2.59782610       0.00000000
Si       2.56230297       2.57380371      -0.35992656       0.00000000
Si       2.50945821      -0.13266576       2.67166930       0.00000000
Si      -0.43707699       1.87929585      -3.14034811       0.00000000
Si      -0.20904957       2.58015681       2.66971827       0.00000000
Si       2.43939492      -2.98286190      -0.13852966       0.00000000
