10
Lattice="16.28999089631971 0.0 0.0 0.0 16.28999089631971 0.0 0.0 0.0 34.2284985734139" Properties=species:S:1:pos:R:3:initial_magmoms:R:1 pbc="T T T"
Si      -1.35545832      -1.35671265      -1.35702381       0.00000000
Si       1.35987291      -1.35441576       1.36034398       0.00000000
Si       1.35951453       1.35884664      -1.35726341       0.00000000
Si      -1.35513252       1.36264221       1.35842718       0.00000000
Si      -2.71253587       0.00099369      -2.71524562       0.00000000
Si      -2.71330801       2.71448415      -0.00037651       0.00000000
Si       0.00203625      -2.71379997      -2.71500602       0.00000000
Si      -2.71456071      -2.71625976      -0.00058188       0.00000000
Si       0.00276930       2.71622718      -2.71483488       0.00000000
Si       2.71709055       0.00123804      -2.71497180       0.00000000
