10
Lattice="16.28999089631971 0.0 0.0 0.0 16.28999089631971 0.0 0.0 0.0 34.2284985734139" Properties=species:S:1:pos:R:3:initial_magmoms:R:1 pbc="T T T"
Si       0.64832571      -2.06492040      -0.95281925       0.00000000
Si       0.53968770       1.62206046      -1.65351123       0.00000000
Si       1.05259464       0.71736273       2.07763680       0.00000000
Si      -2.34593919      -0.62806095       0.39516824       0.00000000
Si       3.15231048       0.69299289       0.53252728       0.00000000
Si      -0.72255924      -2.12286393      -2.87642771       0.00000000
Si      -2.03598936      -2.69239491       1.55955395       0.00000000
Si      -0.11073942      -3.69944271       0.56011546       0.00000000
Si       1.00981710      -1.15031835       3.48456579       0.00000000
Si      -0.29352951       2.44276695       3.03172250       0.00000000
