10
Lattice="16.28999089631971 0.0 0.0 0.0 16.28999089631971 0.0 0.0 0.0 34.2284985734139" Properties=species:S:1:pos:R:3:initial_magmoms:R:1 pbc="T T T"
Si      -2.18009952       0.07721460       0.88052862       0.00000000
Si       0.23515918       1.90114074      -1.37232396       0.00000000
Si       0.02706746      -2.16637126      -1.04338791       0.00000000
Si       1.36878191       0.42412644       1.96584646       0.00000000
Si      -1.32720399      -1.16989893       2.82744670       0.00000000
Si       1.03377806      -1.75138677       2.81423450       0.00000000
Si      -2.09921967       2.37936627       1.47672094       0.00000000
Si      -0.90991935       3.57106122      -0.17134796       0.00000000
Si      -1.09096641       1.71615150      -3.29517940       0.00000000
Si       2.20993235      -2.45121494      -2.05911917       0.00000000
