10
Lattice="16.28999089631971 0.0 0.0 0.0 16.28999089631971 0.0 0.0 0.0 34.2284985734139" Properties=species:S:1:pos:R:3:initial_magmoms:R:1 pbc="T T T"
Si      -0.63832365       0.89461422      -2.12757620       0.00000000
Si       2.26619964      -1.01633310      -0.38003923       0.00000000
Si      -0.54097461       1.63136205       1.88075436       0.00000000
Si      -1.65636720      -1.92482640       0.72554189       0.00000000
Si       0.28538451      -1.96954245       2.63652003       0.00000000
Si      -2.75838570       1.65200148       1.11006506       0.00000000
Si       0.36818658       0.24847137       3.58663523       0.00000000
Si       2.39963103      -2.36537316       1.49472514       0.00000000
Si      -3.57397713      -0.58054302       1.02610250       0.00000000
Si      -1.49123547      -0.94881105      -3.34279127       0.00000000
