10
Lattice="16.28999089631971 0.0 0.0 0.0 16.28999089631971 0.0 0.0 0.0 34.2284985734139" Properties=species:S:1:pos:R:3:initial_magmoms:R:1 pbc="T T T"
Si       1.68642225      -1.76305041      -0.31989973       0.00000000
Si       0.80309700       1.76958270      -1.51221591       0.00000000
Si      -1.83558978      -0.91282644      -1.36701854       0.00000000
Si      -0.43363980      -1.00566315       2.91774153       0.00000000
Si       1.19391039       2.64663630       2.05511443       0.00000000
Si      -0.42430563      -2.12657805      -2.91445560       0.00000000
Si       2.30969394       0.60530382      -2.91825496       0.00000000
Si       1.71536958       3.48447987      -0.26294347       0.00000000
Si       3.54660993      -0.78754005      -1.48253979       0.00000000
Si      -1.40579442       3.21387039       1.76896402       0.00000000
