10
Lattice="16.28999089631971 0.0 0.0 0.0 16.28999089631971 0.0 0.0 0.0 34.2284985734139" Properties=species:S:1:pos:R:3:initial_magmoms:R:1 pbc="T T T"
Si       0.31620519       1.76122593       1.53833227       0.00000000
Si       0.20601963      -1.77049494       1.61781089       0.00000000
Si      -2.25893430       0.44411427      -0.74046552       0.00000000
Si       1.12203891      -0.37318761      -2.11730765       0.00000000
Si      -1.78240293       1.31426091       2.68536413       0.00000000
Si       0.28569402       3.84284358       0.38938362       0.00000000
Si       1.55214378      -3.49589916       0.66372519       0.00000000
Si      -3.56342121      -1.42501662      -0.82240859       0.00000000
Si       0.21287772       1.00970307      -3.82318851       0.00000000
Si      -1.91873394      -2.63943612       2.33866347       0.00000000
