10
Lattice="16.28999089631971 0.0 0.0 0.0 16.28999089631971 0.0 0.0 0.0 34.2284985734139" Properties=species:S:1:pos:R:3:initial_magmoms:R:1 pbc="T T T"
Si       1.19858562       0.88324380      -1.87103346       0.00000000
Si      -1.65174084       1.29212280       1.31557308       0.00000000
Si       2.55425571       0.47338740       0.14865445       0.00000000
Si      -1.87945875      -1.97553717      -0.79512847       0.00000000
Si       1.46657241       0.07076376       2.49642271       0.00000000
Si      -2.84327289       0.04662198      -1.71676553       0.00000000
Si      -0.43650684      -1.51668045       3.03894472       0.00000000
Si       3.08851884      -1.78862571      -0.33304348       0.00000000
Si      -0.06330294      -3.06745587      -1.87014352       0.00000000
Si      -2.97404901       2.05700346      -0.45835408       0.00000000
