10
Lattice="16.28999089631971 0.0 0.0 0.0 16.28999089631971 0.0 0.0 0.0 34.2284985734139" Properties=species:S:1:pos:R:3:initial_magmoms:R:1 pbc="T T T"
Si       0.84963753       1.84732577       1.21489434       0.00000000
Si      -1.88009406      -0.89858898       1.17656183       0.00000000
Si       1.54864143      -1.84946886       0.10365148       0.00000000
Si       2.16619533       0.54623770       2.65668166       0.00000000
Si      -0.57345687      -2.17968345       2.66280856       0.00000000
Si       2.06907435       3.14537813      -0.36838823       0.00000000
Si       3.44351052      -0.91971711       1.26891037       0.00000000
Si      -3.01291695      -2.38897737      -0.37598696       0.00000000
Si       1.20546000       0.41720319      -3.68608999       0.00000000
Si       0.77778234      -3.61672209       1.37617570       0.00000000
