10
Lattice="16.28999089631971 0.0 0.0 0.0 16.28999089631971 0.0 0.0 0.0 34.2284985734139" Properties=species:S:1:pos:R:3:initial_magmoms:R:1 pbc="T T T"
Si       1.35754344      -1.35423657       1.35894061       0.00000000
Si      -1.35729909      -1.35571896      -1.35842718       0.00000000
Si       1.35788553       1.35919030      -1.35829027       0.00000000
Si      -1.35597960       1.35918873       1.36030975       0.00000000
Si      -0.00045612      -2.71303434      -2.71476642       0.00000000
Si       2.71360449      -2.71479366      -0.00075303       0.00000000
Si      -2.71616202      -2.71254564      -0.00071880       0.00000000
Si      -0.00272043      -2.70586674       2.72373430       0.00000000
Si       2.71244790       2.71748218      -0.00088994       0.00000000
Si      -2.71502172       0.00198738      -2.71504025       0.00000000
