10
Lattice="16.28999089631971 0.0 0.0 0.0 16.28999089631971 0.0 0.0 0.0 34.2284985734139" Properties=species:S:1:pos:R:3:initial_magmoms:R:1 pbc="T T T"
Si       0.91227258       1.71489717       1.24927244       0.00000000
Si       1.50659694      -1.16427888      -1.40603905       0.00000000
Si      -1.21213890       1.51656642      -1.41603378       0.00000000
Si      -0.80309700      -1.76958270       1.51221591       0.00000000
Si       0.39081339       0.87705360       3.56733034       0.00000000
Si       2.74351293      -2.55712275       0.02967612       0.00000000
Si       0.15421743      -2.52952749      -2.76812868       0.00000000
Si      -2.63868678      -2.68240914       0.14519737       0.00000000
Si      -2.56214007       0.18679743      -2.77247571       0.00000000
Si      -0.72295020       3.55988206       1.08028625       0.00000000
