10
Lattice="16.28999089631971 0.0 0.0 0.0 16.28999089631971 0.0 0.0 0.0 34.2284985734139" Properties=species:S:1:pos:R:3:initial_magmoms:R:1 pbc="T T T"
Si       0.69781473       2.05397061       0.84274033       0.00000000
Si       0.52145919       0.83784357      -2.31805790       0.00000000
Si       0.80301555      -1.36821339       2.04590696       0.00000000
Si      -2.59970481       0.56723409      -0.28615041       0.00000000
Si      -1.19391039      -2.64663630      -2.05511443       0.00000000
Si      -0.39081339      -0.87705360      -3.56733034       0.00000000
Si       0.76282812       1.82760768       3.17900781       0.00000000
Si      -1.17644751       3.34544702       1.30410652       0.00000000
Si      -0.25257645      -0.23138316       3.79060296       0.00000000
Si      -2.43221103       2.89352007      -0.56932293       0.00000000
