10
Lattice="16.28999089631971 0.0 0.0 0.0 16.28999089631971 0.0 0.0 0.0 34.2284985734139" Properties=species:S:1:pos:R:3:initial_magmoms:R:1 pbc="T T T"
Si      -0.08392608      -0.78102405       2.17446927       0.00000000
Si       0.63987120      -1.59997122      -1.54719746       0.00000000
Si       1.61984502       1.57057659       0.70979677       0.00000000
Si      -2.29309443       0.53454006      -0.42700076       0.00000000
Si      -1.17535608       1.17289629       2.92715438       0.00000000
Si       0.09676260       2.88020951       1.91162849       0.00000000
Si       2.49978195       2.36273811      -1.27696331       0.00000000
Si      -0.27538245      -0.99155601      -3.60248303       0.00000000
Si       2.19248739      -1.52050860       2.63292604       0.00000000
Si       0.67038237      -3.68158887      -0.39824880       0.00000000
