10
Lattice="16.28999089631971 0.0 0.0 0.0 16.28999089631971 0.0 0.0 0.0 34.2284985734139" Properties=species:S:1:pos:R:3:initial_magmoms:R:1 pbc="T T T"
Si       1.14346026       1.90792064       0.50733509       0.00000000
Si      -0.87993693      -0.79216152       1.98676008       0.00000000
Si       1.33885881      -1.58422272      -1.02510988       0.00000000
Si      -1.75679505       0.57173339      -1.51341391       0.00000000
Si      -0.63623853       3.12085775       1.41103641       0.00000000
Si       0.51838038      -1.67834634      -3.17907627       0.00000000
Si      -1.75975983      -1.29530328      -2.93711488       0.00000000
Si      -2.49978195      -2.36273811       1.27696331       0.00000000
Si       2.07896238       2.67519593      -1.50482255       0.00000000
Si       0.35401428      -3.71660001      -0.94878028       0.00000000
