10
Lattice="16.28999089631971 0.0 0.0 0.0 16.28999089631971 0.0 0.0 0.0 34.2284985734139" Properties=species:S:1:pos:R:3:initial_magmoms:R:1 pbc="T T T"
Si       1.89933255      -1.41155619      -0.09053443       0.00000000
Si       0.17161515       1.46758239      -1.85682863       0.00000000
Si      -1.79771553      -1.45905783      -0.56976791       0.00000000
Si      -1.43451369      -0.96982352       2.36621743       0.00000000
Si      -3.20333076       0.27860787      -1.32293221       0.00000000
Si      -2.28450960       2.56495824       1.59737646       0.00000000
Si      -2.05144857       2.01740247      -2.46486402       0.00000000
Si       1.61495802       3.26223540      -1.25474900       0.00000000
Si       3.47024241      -0.65228418       1.53559399       0.00000000
Si      -0.11824911      -2.98974347       2.49895562       0.00000000
