10
Lattice="16.28999089631971 0.0 0.0 0.0 16.28999089631971 0.0 0.0 0.0 34.2284985734139" Properties=species:S:1:pos:R:3:initial_magmoms:R:1 pbc="T T T"
Si       0.85773366       2.20273054       0.24398087       0.00000000
Si      -1.97791551       0.13547416      -1.37454881       0.00000000
Si       1.15483068      -1.61516394      -1.40689476       0.00000000
Si      -1.04425416       1.43491768       2.57740738       0.00000000
Si      -3.04186102      -1.88005563      -0.68857509       0.00000000
Si       3.43442070      -1.50976764      -0.67457563       0.00000000
Si       0.12572622      -3.71123082      -0.92591563       0.00000000
Si      -3.00408777       2.23592956      -0.90993091       0.00000000
Si       2.18510802       2.74559479      -1.61346387       0.00000000
Si      -1.76595003      -3.49934679       0.63237186       0.00000000
