10
Lattice="16.28999089631971 0.0 0.0 0.0 16.28999089631971 0.0 0.0 0.0 34.2284985734139" Properties=species:S:1:pos:R:3:initial_magmoms:R:1 pbc="T T T"
Si       1.31626458      -2.01991995       0.13273819       0.00000000
Si      -0.74086920       1.11042251       2.09967996       0.00000000
Si      -1.60448355      -1.61775243      -1.21802180       0.00000000
Si       1.43451369       0.96982352      -2.36621743       0.00000000
Si      -0.36320184      -0.48923431      -2.93598533       0.00000000
Si      -2.19717891       2.65507289       0.95186085       0.00000000
Si      -0.32503437      -3.53873439      -0.78917270       0.00000000
Si      -0.84999591       3.53478176      -0.76884096       0.00000000
Si       2.35124973      -1.94112522       2.39479824       0.00000000
Si       3.33384624      -0.44173267      -2.45675186       0.00000000
