10
Lattice="16.28999089631971 0.0 0.0 0.0 16.28999089631971 0.0 0.0 0.0 34.2284985734139" Properties=species:S:1:pos:R:3:initial_magmoms:R:1 pbc="T T T"
Si      -1.35606105      -1.35742941      -1.35740033       0.00000000
Si      -1.35770634       1.35690813       1.35709227       0.00000000
Si       1.35692442       1.35850455      -1.35685267       0.00000000
Si       1.35736425      -1.35767376       1.35743456       0.00000000
Si       0.00171045       2.71386513      -2.71370534       0.00000000
Si      -0.00280188      -2.71466986       2.71452682       0.00000000
Si      -0.00055386       2.71476108       2.71445837       0.00000000
Si       2.71428867      -0.00001629       2.71493757       0.00000000
Si      -2.71534752      -0.00337203       2.71421877       0.00000000
Si       2.71510317       2.71477737       0.00030806       0.00000000
