10
Lattice="16.28999089631971 0.0 0.0 0.0 16.28999089631971 0.0 0.0 0.0 34.2284985734139" Properties=species:S:1:pos:R:3:initial_magmoms:R:1 pbc="T T T"
Si      -1.35063648      -1.33604064      -1.37307699       0.00000000
Si      -1.42234506       1.31911533       1.35110228       0.00000000
Si       1.36472733       1.37916027      -1.36890111       0.00000000
Si       1.23269688      -1.50146559       1.48408007       0.00000000
Si       2.01665313       0.48969369       2.78969265       0.00000000
Si       0.30263562       2.39479290       2.59893712       0.00000000
Si      -2.69162928      -2.69859000      -0.00883096       0.00000000
Si       0.00153126      -2.69344399      -2.72900549       0.00000000
Si       2.73290814      -2.70134464       0.02447339       0.00000000
Si      -2.71101438       0.01785384      -2.72931354       0.00000000
