10
Lattice="16.28999089631971 0.0 0.0 0.0 16.28999089631971 0.0 0.0 0.0 34.2284985734139" Properties=species:S:1:pos:R:3:initial_magmoms:R:1 pbc="T T T"
Si       1.34895861       1.36187658       1.31998856       0.00000000
Si       1.35389448      -1.35795069      -1.35969364       0.00000000
Si      -1.36094805       1.35682668      -1.36017284       0.00000000
Si      -1.36472733      -1.37916027       1.36890111       0.00000000
Si      -0.01648548       2.66045022       2.62053532       0.00000000
Si       2.49111567       0.05406651       2.82843933       0.00000000
Si       2.71041165       2.71621089      -0.00414165       0.00000000
Si       2.71236645      -2.71629234       0.00359399       0.00000000
Si       2.71171485      -0.00039096      -2.71709396       0.00000000
Si      -2.71536381      -2.71520091      -0.00417588       0.00000000
