10
Lattice="16.28999089631971 0.0 0.0 0.0 16.28999089631971 0.0 0.0 0.0 34.2284985734139" Properties=species:S:1:pos:R:3:initial_magmoms:R:1 pbc="T T T"
Si       1.04560623       1.64481759      -1.34730291       0.00000000
Si      -1.72498068      -1.07567757      -1.24783484       0.00000000
Si      -0.73502109       1.49910354       1.74257384       0.00000000
Si       1.71401751      -1.90509921       0.19075553       0.00000000
Si      -0.30263562      -2.39479290      -2.59893712       0.00000000
Si       2.41105032       0.34624395      -2.64784967       0.00000000
Si      -0.60158970       0.15006348       3.61733821       0.00000000
Si       2.57375484       2.67113646       0.06657447       0.00000000
Si       0.89554275       3.22823817       1.63119424       0.00000000
Si       3.55320738      -0.96156612      -1.13939890       0.00000000
