10
Lattice="16.28999089631971 0.0 0.0 0.0 16.28999089631971 0.0 0.0 0.0 34.2284985734139" Properties=species:S:1:pos:R:3:initial_magmoms:R:1 pbc="T T T"
Si      -1.33888880      -1.29331197      -1.43073291       0.00000000
Si      -1.31510540       1.39110084       1.40591925       0.00000000
Si       1.39132238      -1.32528924       1.41098507       0.00000000
Si       1.54912361       1.34713413      -1.27582001       0.00000000
Si      -2.58041486      -2.66264937       0.05040834       0.00000000
Si       2.72446340      -2.61237843      -0.07507341       0.00000000
Si       0.18666548      -2.33355879      -2.99682451       0.00000000
Si      -2.93583008       0.21380625      -2.44858634       0.00000000
Si       0.23443265       2.50053129      -2.90889145       0.00000000
Si      -2.67074291       0.03171663       2.78010866       0.00000000
