10
Lattice="16.28999089631971 0.0 0.0 0.0 16.28999089631971 0.0 0.0 0.0 34.2284985734139" Properties=species:S:1:pos:R:3:initial_magmoms:R:1 pbc="T T T"
Si      -0.23216508       2.26590642       0.21403092       0.00000000
Si      -0.07066602      -0.80220105      -2.17703641       0.00000000
Si       2.35085877       0.14973768      -0.12520792       0.00000000
Si      -1.24740675      -0.73989180       1.87544894       0.00000000
Si       1.83945051       2.02802355       1.37762938       0.00000000
Si      -0.32781996      -2.89556379       1.52919326       0.00000000
Si      -1.70122986      -2.53133568      -2.06565681       0.00000000
Si      -2.13711768       2.92534191       1.36903802       0.00000000
Si       3.32996922      -1.76642244       0.91492828       0.00000000
Si      -0.25844085       0.10015092       3.91919951       0.00000000
