10
Lattice="16.28999089631971 0.0 0.0 0.0 16.28999089631971 0.0 0.0 0.0 34.2284985734139" Properties=species:S:1:pos:R:3:initial_magmoms:R:1 pbc="T T T"
Si      -0.21380625      -2.18686734       0.79536807       0.00000000
Si      -1.19871594       1.33130025       1.55948550       0.00000000
Si       1.98016353       0.82266129       1.13539416       0.00000000
Si      -1.27904193       0.24260697      -2.13257357       0.00000000
Si      -3.01293324      -0.24744510       1.71067286       0.00000000
Si       2.45241063       2.61907362      -0.31117145       0.00000000
Si       0.62723016       1.71382203       3.17137485       0.00000000
Si      -2.47867011      -2.50945821       1.22897493       0.00000000
Si       0.57832758      -2.16178074       3.00834442       0.00000000
Si      -1.48729329       3.51517023       0.72704794       0.00000000
