10
Lattice="16.28999089631971 0.0 0.0 0.0 16.28999089631971 0.0 0.0 0.0 34.2284985734139" Properties=species:S:1:pos:R:3:initial_magmoms:R:1 pbc="T T T"
Si      -1.88366157      -0.80049060       1.35497493       0.00000000
Si      -0.15519483       0.86889231      -2.31251288       0.00000000
Si       0.77414967       1.87128117       1.55369886       0.00000000
Si       1.83246210      -1.77805350       0.37461679       0.00000000
Si       0.77786379       3.06967131      -1.96214978       0.00000000
Si      -0.60061230      -2.14294950       3.00583003       0.00000000
Si       2.14718490       0.57959820       3.01837136       0.00000000
Si      -0.20409741      -3.00671046      -2.47554331       0.00000000
Si      -3.16265463      -2.33574165      -0.01132964       0.00000000
Si       3.53934459      -0.69919938       1.60864248       0.00000000
