10
Lattice="16.28999089631971 0.0 0.0 0.0 16.28999089631971 0.0 0.0 0.0 34.2284985734139" Properties=species:S:1:pos:R:3:initial_magmoms:R:1 pbc="T T T"
Si       0.93305862       2.20077900       0.35036311       0.00000000
Si      -1.82594610      -0.38252178      -1.61188936       0.00000000
Si       0.15519483      -0.86889231       2.31251288       0.00000000
Si       1.35293337      -0.89116074      -2.03598069       0.00000000
Si      -0.62723016      -1.71382203      -3.17137485       0.00000000
Si      -2.11452345       1.80134820      -2.44432691       0.00000000
Si      -0.04890258      -3.87560277      -0.16303043       0.00000000
Si       1.82518047       0.90525159      -3.48254631       0.00000000
Si       0.03469770       2.48604948      -3.18883139       0.00000000
Si       0.92934450       1.00238886       3.86621175       0.00000000
