10
Lattice="16.28999089631971 0.0 0.0 0.0 16.28999089631971 0.0 0.0 0.0 34.2284985734139" Properties=species:S:1:pos:R:3:initial_magmoms:R:1 pbc="T T T"
Si      -1.34947989      -1.34648253      -1.37359042       0.00000000
Si       1.36847403       1.36574206      -1.36927762       0.00000000
Si      -1.46269539       1.23561279       1.41634183       0.00000000
Si       1.22153823      -1.54393362       1.40559408       0.00000000
Si       0.12131163       2.11649358       2.86167522       0.00000000
Si      -2.70974376      -2.69811270      -0.00879673       0.00000000
Si      -2.68773597       2.72009021      -0.01324644       0.00000000
Si       2.70969489      -2.72174949      -0.01054238       0.00000000
Si      -2.70702333       0.00775404      -2.73253103       0.00000000
Si       0.00658116      -2.70703962      -2.73328405       0.00000000
