10
Lattice="16.28999089631971 0.0 0.0 0.0 16.28999089631971 0.0 0.0 0.0 34.2284985734139" Properties=species:S:1:pos:R:3:initial_magmoms:R:1 pbc="T T T"
Si       2.26773090       0.50103153      -0.43172429       0.00000000
Si      -0.93305862      -2.20077900      -0.35036311       0.00000000
Si       0.63508194       0.71545680       2.23080941       0.00000000
Si      -0.44106804       1.78632882      -1.73394825       0.00000000
Si      -2.09658816       2.39182812      -0.00742759       0.00000000
Si      -1.06160301       2.47062285       2.25463246       0.00000000
Si      -0.89836092       0.28527048      -3.53919450       0.00000000
Si      -0.00371412      -1.19839014       3.51584864       0.00000000
Si      -0.77786379      -3.06967131       1.96214978       0.00000000
Si       2.68397298      -0.35552925      -2.58243898       0.00000000
