10
Lattice="16.28999089631971 0.0 0.0 0.0 16.28999089631971 0.0 0.0 0.0 34.2284985734139" Properties=species:S:1:pos:R:3:initial_magmoms:R:1 pbc="T T T"
Si       1.35749457      -1.35740009      -1.36369837       0.00000000
Si      -1.35847197       1.35834165      -1.36328763       0.00000000
Si       1.34262180       1.35904212       1.39488055       0.00000000
Si      -1.34418564      -1.36421257       1.38978050       0.00000000
Si       2.71149455      -2.71343338      -0.00506582       0.00000000
Si      -2.71251306      -2.71580608       0.00044497       0.00000000
Si      -2.71236645       2.71629234      -0.00359399       0.00000000
Si       2.72062548       2.71373481      -0.00263560       0.00000000
Si      -0.00019548      -2.71446353      -2.72055104       0.00000000
Si       2.71521590       0.00032580      -2.72096179       0.00000000
