10
Lattice="16.28999089631971 0.0 0.0 0.0 16.28999089631971 0.0 0.0 0.0 34.2284985734139" Properties=species:S:1:pos:R:3:initial_magmoms:R:1 pbc="T T T"
Si       2.13947973      -0.14053383       0.93765601       0.00000000
Si      -0.03764619      -1.60087369      -1.71276080       0.00000000
Si      -0.91447173       1.93054419      -1.00871442       0.00000000
Si      -1.02842028      -0.09026289       2.14369784       0.00000000
Si       1.75689279      -2.01384310       2.34458501       0.00000000
Si       2.35437741       2.11304106       1.66562813       0.00000000
Si      -1.41579648      -3.35535623      -0.99153170       0.00000000
Si      -3.22774947       1.45893240      -1.56249760       0.00000000
Si       0.37822122       2.39679657      -3.05684623       0.00000000
Si      -3.22817301       0.72884718       2.07749988       0.00000000
