10
Lattice="16.28999089631971 0.0 0.0 0.0 16.28999089631971 0.0 0.0 0.0 34.2284985734139" Properties=species:S:1:pos:R:3:initial_magmoms:R:1 pbc="T T T"
Si      -1.37815029      -1.75448254       0.72122910       0.00000000
Si       0.03764619       1.60087369       1.71276080       0.00000000
Si       2.17794042      -0.79539020      -0.54094749       0.00000000
Si      -3.49848927      -0.64333771       0.80057080       0.00000000
Si      -0.87682554       3.53141788       0.70404638       0.00000000
Si       2.17712592       1.46033986       2.65041681       0.00000000
Si       2.22524658      -0.85927958      -2.91647508       0.00000000
Si      -1.55997927      -3.62071381      -0.70387524       0.00000000
Si       2.73991284      -2.81748649       0.77507055       0.00000000
Si      -0.54633402      -2.97413113       2.62929782       0.00000000
