10
Lattice="16.28999089631971 0.0 0.0 0.0 16.28999089631971 0.0 0.0 0.0 34.2284985734139" Properties=species:S:1:pos:R:3:initial_magmoms:R:1 pbc="T T T"
Si       1.32440958      -0.93603969       1.78415913       0.00000000
Si       1.11648402      -1.52925633      -1.65056758       0.00000000
Si       0.51673509       2.37029274      -0.88621055       0.00000000
Si      -1.59348780       1.79297514       1.60325169       0.00000000
Si      -0.43161984      -2.02330434       2.86982986       0.00000000
Si       2.28410235      -0.07047054      -3.05301264       0.00000000
Si       2.42745435       0.76235571       2.93636668       0.00000000
Si       1.25138151       2.06343801      -3.11506894       0.00000000
Si      -0.45442584      -2.28852834      -3.27669600       0.00000000
Si      -2.35375839      -0.87697215      -3.18616157       0.00000000
