10
Lattice="16.28999089631971 0.0 0.0 0.0 16.28999089631971 0.0 0.0 0.0 34.2284985734139" Properties=species:S:1:pos:R:3:initial_magmoms:R:1 pbc="T T T"
Si      -1.35573525       1.35599589       1.35941981       0.00000000
Si      -1.34873055      -1.35785295      -1.36992454       0.00000000
Si       1.35976886      -1.35843939       1.35945404       0.00000000
Si       1.35563751       1.35938421      -1.37418941       0.00000000
Si       0.09032805      -2.69436600      -2.72970033       0.00000000
Si      -2.71373481       2.71331127      -0.00109531       0.00000000
Si      -2.71148679      -2.71720458      -0.00284097       0.00000000
Si       2.71640867       2.71252935      -0.00116377       0.00000000
Si      -2.71352304      -0.00099369       2.71688859       0.00000000
Si       0.00099369       2.71366965       2.71678591       0.00000000
