10
Lattice="16.28999089631971 0.0 0.0 0.0 16.28999089631971 0.0 0.0 0.0 34.2284985734139" Properties=species:S:1:pos:R:3:initial_magmoms:R:1 pbc="T T T"
Si       0.09128916       1.88538831      -1.57800312       0.00000000
Si      -1.29269295      -0.46625238       2.04813181       0.00000000
Si       2.43319692       0.19917783       0.40981804       0.00000000
Si      -2.36187081      -0.90090216      -1.65624951       0.00000000
Si      -0.52268094       0.04263093      -2.98640394       0.00000000
Si      -1.18255626       1.43044119       3.42966325       0.00000000
Si      -0.37822122      -2.39679657       3.05684623       0.00000000
Si       3.52220004      -1.38865734      -1.23253469       0.00000000
Si      -3.60597069      -0.93786417       1.49434863       0.00000000
Si      -0.41586741      -3.99767026       1.34408543       0.00000000
