10
Lattice="16.28999089631971 0.0 0.0 0.0 16.28999089631971 0.0 0.0 0.0 34.2284985734139" Properties=species:S:1:pos:R:3:initial_magmoms:R:1 pbc="T T T"
Si      -2.14566993       0.85190184       0.06352813       0.00000000
Si       0.80624097       0.52471719       2.11001697       0.00000000
Si       1.18930032       1.19169495      -1.64806890       0.00000000
Si      -0.08087985      -2.30215167      -0.59619232       0.00000000
Si      -1.45828080      -1.33765335      -2.77172268       0.00000000
Si       2.09921967      -2.37936627      -1.47672094       0.00000000
Si      -0.99921231      -0.42634188       3.34693292       0.00000000
Si      -3.21312105      -0.54907074      -1.45573886       0.00000000
Si      -2.98939419      -0.10451664       2.02109128       0.00000000
Si      -0.57651939       2.33236962      -2.77826032       0.00000000
