10
Lattice="16.28999089631971 0.0 0.0 0.0 16.28999089631971 0.0 0.0 0.0 34.2284985734139" Properties=species:S:1:pos:R:3:initial_magmoms:R:1 pbc="T T T"
Si       1.00375722      -1.63416393       1.35863255       0.00000000
Si      -1.35420399      -1.35490446      -1.36862728       0.00000000
Si       1.36348929       1.35697329      -1.36345877       0.00000000
Si      -1.42281747       1.29280698       1.40388265       0.00000000
Si       2.44290120      -0.32553936       2.60547477       0.00000000
Si      -2.55295251      -0.38434626       2.66992707       0.00000000
Si      -0.95952987      -2.17429146       2.87235452       0.00000000
Si      -2.72354139       2.69928558      -0.00171143       0.00000000
Si      -2.71565703      -2.70923877      -0.04449707       0.00000000
Si       2.72876952       2.70044217       0.02115322       0.00000000
