10
Lattice="16.28999089631971 0.0 0.0 0.0 16.28999089631971 0.0 0.0 0.0 34.2284985734139" Properties=species:S:1:pos:R:3:initial_magmoms:R:1 pbc="T T T"
Si       0.80745199      -0.15110604      -2.19466410       0.00000000
Si      -1.84959918      -1.46038221       0.05952339       0.00000000
Si       1.54395058      -1.21710735       1.34542035       0.00000000
Si       0.12263112       2.29552164       0.73687153       0.00000000
Si       3.08831426       0.07283259      -1.51960927       0.00000000
Si      -3.46002858       0.16029360       0.51869896       0.00000000
Si       2.57690600       0.56330820       2.56501666       0.00000000
Si       0.14870648      -2.31264243      -2.87639349       0.00000000
Si       2.43402641       2.54264094       1.30975423       0.00000000
Si      -0.70837065       2.43854784       2.88758621       0.00000000
