10
Lattice="16.28999089631971 0.0 0.0 0.0 16.28999089631971 0.0 0.0 0.0 34.2284985734139" Properties=species:S:1:pos:R:3:initial_magmoms:R:1 pbc="T T T"
Si       1.33107775      -1.30774491      -1.44153402       0.00000000
Si      -2.27497995       0.57021516      -0.42734304       0.00000000
Si       1.07622558       2.05154631      -0.68843818       0.00000000
Si       0.24461064      -1.59604533       1.84604665       0.00000000
Si       2.66361767      -1.50444666       1.83618883       0.00000000
Si      -2.76350076       1.78883748       1.67976451       0.00000000
Si      -3.16198674      -1.50742773      -1.29821922       0.00000000
Si       0.15969087      -3.26560743      -1.91761848       0.00000000
Si       3.49543394      -1.41362991      -0.44264319       0.00000000
Si      -1.01998206      -0.77196681       3.69503694       0.00000000
