10
Lattice="16.28999089631971 0.0 0.0 0.0 16.28999089631971 0.0 0.0 0.0 34.2284985734139" Properties=species:S:1:pos:R:3:initial_magmoms:R:1 pbc="T T T"
Si      -1.89662352       1.32986673      -0.29313303       0.00000000
Si      -1.30660624      -1.95186780      -0.26965226       0.00000000
Si       1.49234319       0.38156067       1.85118092       0.00000000
Si       1.46904849       0.49414086      -1.85768434       0.00000000
Si      -0.96692553       3.41412336      -0.06719058       0.00000000
Si       3.11572314      -1.11324231      -1.42041503       0.00000000
Si      -3.14414009       0.79783533       1.61284775       0.00000000
Si       0.16117326      -3.64638618       0.42956790       0.00000000
Si       1.78530255      -3.03901842      -1.28247410       0.00000000
Si      -3.35903777      -1.45573956       0.88487564       0.00000000
