10
Lattice="16.28999089631971 0.0 0.0 0.0 16.28999089631971 0.0 0.0 0.0 34.2284985734139" Properties=species:S:1:pos:R:3:initial_magmoms:R:1 pbc="T T T"
Si       1.35710361      -1.35790182       1.35743456       0.00000000
Si      -1.35907470      -1.35672894      -1.35726341       0.00000000
Si      -1.35775521       1.35777150       1.35770838       0.00000000
Si       1.35777150       1.35816246      -1.35798221       0.00000000
Si      -2.71002069      -0.00066789      -2.71329460       0.00000000
Si       2.71288773      -0.00127062       2.71483488       0.00000000
Si      -0.00127062       2.71352304       2.71459528       0.00000000
Si       2.71275741      -0.00112401      -2.71586174       0.00000000
Si       2.71466334      -2.71516833       0.00037651       0.00000000
Si      -2.71472850      -2.71524978       0.00010269       0.00000000
