10
Lattice="16.28999089631971 0.0 0.0 0.0 16.28999089631971 0.0 0.0 0.0 34.2284985734139" Properties=species:S:1:pos:R:3:initial_magmoms:R:1 pbc="T T T"
Si      -0.86252292      -1.82491983      -1.21781643       0.00000000
Si      -0.50401260      -0.13934466       2.33527485       0.00000000
Si      -1.79149275       1.66811229       0.00489468       0.00000000
Si       1.93978422       0.94918572      -1.19146047       0.00000000
Si      -2.16324684      -0.41844123      -2.62341051       0.00000000
Si       0.57158352       2.30824413      -2.61670172       0.00000000
Si       1.73543886       0.12864213       3.09911845       0.00000000
Si      -0.72467694       3.53528838      -1.05574440       0.00000000
Si      -2.46637116       1.49420025       2.46886875       0.00000000
Si      -3.65140350       0.75937464      -1.20727405       0.00000000
