10
Lattice="16.28999089631971 0.0 0.0 0.0 16.28999089631971 0.0 0.0 0.0 34.2284985734139" Properties=species:S:1:pos:R:3:initial_magmoms:R:1 pbc="T T T"
Si      -1.85332959       1.40400252       0.23460226       0.00000000
Si       0.20738799      -1.61875359       1.74637320       0.00000000
Si       2.04752268       1.22183145       0.24079762       0.00000000
Si      -0.70413525      -1.05642279      -2.12808963       0.00000000
Si       2.87852445       1.07880525      -1.90991706       0.00000000
Si      -3.61528857      -0.04742019      -0.42576853       0.00000000
Si      -1.58001597       2.92395726      -1.58413003       0.00000000
Si       0.90629415      -2.67709860      -2.58726520       0.00000000
Si      -2.88326484      -1.89094320      -1.70978292       0.00000000
Si       3.55859352      -0.13742244       1.48527807       0.00000000
