10
Lattice="16.28999089631971 0.0 0.0 0.0 16.28999089631971 0.0 0.0 0.0 34.2284985734139" Properties=species:S:1:pos:R:3:initial_magmoms:R:1 pbc="T T T"
Si       0.83100177      -0.14302620      -2.15071468       0.00000000
Si       1.51107084      -1.35925389       1.24448045       0.00000000
Si      -2.04752268      -1.22183145      -0.24079762       0.00000000
Si       0.83087145       2.16741708       0.71120014       0.00000000
Si       3.14239706       0.10409310      -1.57783198       0.00000000
Si       2.30142906       0.27785853       2.72962160       0.00000000
Si      -1.84013469      -2.84058504       1.50557558       0.00000000
Si      -0.43218999       2.63596865       2.64627516       0.00000000
Si       3.28527665      -1.87523964      -0.32256955       0.00000000
Si       0.70837065      -2.43854784      -2.88758621       0.00000000
