10
Lattice="16.28999089631971 0.0 0.0 0.0 16.28999089631971 0.0 0.0 0.0 34.2284985734139" Properties=species:S:1:pos:R:3:initial_magmoms:R:1 pbc="T T T"
Si       1.35583299       1.35704719       1.35661307       0.00000000
Si       1.35765747      -1.35743275      -1.35712650       0.00000000
Si      -1.35732190      -1.35777484       1.35743456       0.00000000
Si      -1.35742615       1.35791056      -1.35729764       0.00000000
Si      -2.71408538       2.71469977      -0.00023960       0.00000000
Si       0.00035838       2.71722472       2.71206237       0.00000000
Si      -2.71475645      -2.71465039       0.00000000       0.00000000
Si       0.00122175      -2.71421056       2.71521140       0.00000000
Si       2.71464705      -0.00097690      -2.71480065       0.00000000
Si      -2.71513765       0.00029022      -2.71452682       0.00000000
