10
Lattice="16.28999089631971 0.0 0.0 0.0 16.28999089631971 0.0 0.0 0.0 34.2284985734139" Properties=species:S:1:pos:R:3:initial_magmoms:R:1 pbc="T T T"
Si       0.21836745       2.22961230       0.68131864       0.00000000
Si       0.84074319      -1.29643965       1.81527521       0.00000000
Si      -2.28086227      -0.22393863      -0.67505483       0.00000000
Si       1.09514412      -0.71021142      -2.03813709       0.00000000
Si      -3.08831426      -0.07283259       1.51960927       0.00000000
Si      -1.54436368      -1.28993994       2.86502962       0.00000000
Si       3.31255521      -0.73085085      -1.26744778       0.00000000
Si      -0.46374372      -3.16557054       1.73333214       0.00000000
Si       0.27955269      -2.94275592      -2.12209964       0.00000000
Si      -1.20598128      -3.54931407      -0.38137414       0.00000000
