10
Lattice="16.28999089631971 0.0 0.0 0.0 16.28999089631971 0.0 0.0 0.0 34.2284985734139" Properties=species:S:1:pos:R:3:initial_magmoms:R:1 pbc="T T T"
Si      -0.80745199       0.15110604       2.19466410       0.00000000
Si      -0.65874551      -2.16153639      -0.68172939       0.00000000
Si      -0.85252642       1.64814075      -1.47829545       0.00000000
Si       2.28086227       0.22393863       0.67505483       0.00000000
Si       1.07488099      -3.32537544       0.29368068       0.00000000
Si       3.37600639      -0.48627279      -1.36308226       0.00000000
Si      -2.65705117      -1.30927617       2.25418749       0.00000000
Si      -2.85820009      -2.38969413       0.12739854       0.00000000
Si       2.49922972       2.45355093       1.35637347       0.00000000
Si       0.73649859      -1.06600131       3.54008444       0.00000000
