10
Lattice="16.28999089631971 0.0 0.0 0.0 16.28999089631971 0.0 0.0 0.0 34.2284985734139" Properties=species:S:1:pos:R:3:initial_magmoms:R:1 pbc="T T T"
Si       1.27994277       1.39650912       1.41002808       0.00000000
Si      -1.55364313      -1.27531152       1.44927450       0.00000000
Si      -0.12479508       1.80421524      -1.73562545       0.00000000
Si       1.30259727      -1.61235162      -1.46467250       0.00000000
Si      -0.26930695       0.47592864      -3.64318074       0.00000000
Si       2.73915373       2.48137425      -0.16960231       0.00000000
Si      -0.50650564      -2.75610510      -2.50949800       0.00000000
Si       2.48126674      -0.00032580       2.86772139       0.00000000
Si       2.61728824      -2.76574878       0.16839894       0.00000000
Si      -0.23661693       2.70229923       2.83849023       0.00000000
