10
Lattice="16.28999089631971 0.0 0.0 0.0 16.28999089631971 0.0 0.0 0.0 34.2284985734139" Properties=species:S:1:pos:R:3:initial_magmoms:R:1 pbc="T T T"
Si       1.34788000       1.36322865       1.38450247       0.00000000
Si      -1.36687361      -1.35575154       1.38638504       0.00000000
Si      -1.50022355       1.32714630      -1.40192136       0.00000000
Si       1.51655969      -1.30579011      -1.42846215       0.00000000
Si      -2.70918590      -2.69881317       0.02051315       0.00000000
Si       2.70452586       2.71270023      -0.01042943       0.00000000
Si       2.71788366      -2.70262503       0.02923115       0.00000000
Si      -2.73432137       2.71780731       0.02634227       0.00000000
Si       2.70820740       0.00122175       2.74505182       0.00000000
Si      -0.00796252      -2.71111212       2.74518873       0.00000000
