10
Lattice="16.28999089631971 0.0 0.0 0.0 16.28999089631971 0.0 0.0 0.0 34.2284985734139" Properties=species:S:1:pos:R:3:initial_magmoms:R:1 pbc="T T T"
Si       1.35743455       1.35687555       1.35743456       0.00000000
Si       1.35766424      -1.35775521      -1.35740033       0.00000000
Si      -1.35783219       1.35775521      -1.35726341       0.00000000
Si      -1.35946119      -1.35927018       1.35716073       0.00000000
Si      -0.00068042      -2.71448415      -2.71473220       0.00000000
Si      -2.71474032       2.71456083       0.00017114       0.00000000
Si       2.71475645       2.71465039       0.00000000       0.00000000
Si      -0.00038120       2.71494061      -2.71452682       0.00000000
Si      -2.71457742       0.00016290      -2.71565637       0.00000000
Si       2.71548950      -0.00215028      -2.71486911       0.00000000
