10
Lattice="16.28999089631971 0.0 0.0 0.0 16.28999089631971 0.0 0.0 0.0 34.2284985734139" Properties=species:S:1:pos:R:3:initial_magmoms:R:1 pbc="T T T"
Si      -1.35399998       1.35603330      -1.35863255       0.00000000
Si       1.36048484      -1.35871542      -1.35822181       0.00000000
Si      -1.34795639      -1.36317888       1.37095482       0.00000000
Si       1.36535881       1.37094679       1.37684212       0.00000000
Si       2.68120311      -0.08822574       2.70490861       0.00000000
Si      -2.71149455       2.71343338       0.00506582       0.00000000
Si      -2.71079408      -2.71521630       0.00332017       0.00000000
Si      -2.71169003      -0.00103015      -2.71548522       0.00000000
Si       0.00372136       2.71375918      -2.71589597       0.00000000
Si       0.00305029      -2.71559097      -2.71565637       0.00000000
