10
Lattice="16.28999089631971 0.0 0.0 0.0 16.28999089631971 0.0 0.0 0.0 34.2284985734139" Properties=species:S:1:pos:R:3:initial_magmoms:R:1 pbc="T T T"
Si       2.25175041       0.48109257       0.20852013       0.00000000
Si      -0.94653045       1.41776757      -1.58180249       0.00000000
Si      -0.87265530       0.24019605       2.14804486       0.00000000
Si      -0.21836745      -2.22961230      -0.68131864       0.00000000
Si      -0.29624994       3.45055499      -0.56593431       0.00000000
Si      -3.18405059      -0.00692325       1.57516216       0.00000000
Si       3.30734241      -0.65573766      -1.53617587       0.00000000
Si      -2.49922972      -2.45355093      -1.35637347       0.00000000
Si       0.62237574      -3.52605195       1.13395656       0.00000000
Si      -0.72977571      -1.73913669       3.40330729       0.00000000
