10
Lattice="16.28999089631971 0.0 0.0 0.0 16.28999089631971 0.0 0.0 0.0 34.2284985734139" Properties=species:S:1:pos:R:3:initial_magmoms:R:1 pbc="T T T"
Si       1.33594290       1.34742735       1.37985423       0.00000000
Si      -1.35934674       1.35298224      -1.35524393       0.00000000
Si       1.35547461      -1.36017753      -1.35544930       0.00000000
Si      -1.35280631      -1.34533734       1.38043612       0.00000000
Si       2.67302610      -0.08729811       2.71124089       0.00000000
Si      -2.70903419       2.71088406       0.00602422       0.00000000
Si      -0.00024435       2.71252935      -2.71168586       0.00000000
Si      -2.71444376      -0.00252495      -2.71230197       0.00000000
Si       2.71507059      -0.00218286      -2.71223351       0.00000000
Si      -0.00035838      -2.71722472      -2.71206237       0.00000000
