10
Lattice="16.28999089631971 0.0 0.0 0.0 16.28999089631971 0.0 0.0 0.0 34.2284985734139" Properties=species:S:1:pos:R:3:initial_magmoms:R:1 pbc="T T T"
Si       1.38725314      -1.17540495       1.37961463       0.00000000
Si      -1.64886795       0.86128488       1.36349300       0.00000000
Si      -0.79035822      -1.63711242      -1.48514115       0.00000000
Si       0.87463942       1.97081307      -0.93132374       0.00000000
Si      -1.47055761       1.88955855      -2.01842146       0.00000000
Si       3.05520253      -1.71390348      -0.05462871       0.00000000
Si      -2.30142906      -0.27785853      -2.72962160       0.00000000
Si      -2.73361905       2.35811012      -0.08334644       0.00000000
Si      -2.83823343      -0.95982309       2.13353197       0.00000000
Si       3.06540007       2.23158339       0.28265910       0.00000000
