10
Lattice="16.28999089631971 0.0 0.0 0.0 16.28999089631971 0.0 0.0 0.0 34.2284985734139" Properties=species:S:1:pos:R:3:initial_magmoms:R:1 pbc="T T T"
Si      -1.05450057      -1.16364357      -1.72682872       0.00000000
Si       1.68700869      -1.61818344       0.33054480       0.00000000
Si       1.02910446       2.09606688      -0.48097913       0.00000000
Si      -1.89167625       0.21188403       1.55828750       0.00000000
Si       0.41158314      -2.18266452       2.29088046       0.00000000
Si       0.61344882      -1.70214210      -3.16107207       0.00000000
Si       0.62364636       2.24334477      -2.82378425       0.00000000
Si      -3.16758724       1.83117519       0.23734054       0.00000000
Si      -1.77549597      -3.17096253      -0.80854605       0.00000000
Si      -0.90968247      -0.60471738       3.56144304       0.00000000
