10
Lattice="16.28999089631971 0.0 0.0 0.0 16.28999089631971 0.0 0.0 0.0 34.642051614445585" Properties=species:S:1:pos:R:3:initial_magmoms:R:1 pbc="T T T"
Si       1.61018505       1.23901414      -1.32818882       0.00000000
Si       1.43770653      -1.24055910       1.53465067       0.00000000
Si      -1.28071980       1.47792328       1.52100170       0.00000000
Si      -0.87806358      -1.77957891      -1.53891654       0.00000000
Si      -2.60003061      -2.50810029       0.05173447       0.00000000
Si       2.76296319      -2.52329886      -0.02454391       0.00000000
Si       3.54840183      -0.41431172      -1.39193023       0.00000000
Si       0.08609265      -2.59372053       2.92285892       0.00000000
Si      -2.62982502       0.12123018       2.91884044       0.00000000
Si       2.73435795       2.86017865       0.11479689       0.00000000
