10
Lattice="16.28999089631971 0.0 0.0 0.0 16.28999089631971 0.0 0.0 0.0 34.642051614445585" Properties=species:S:1:pos:R:3:initial_magmoms:R:1 pbc="T T T"
Si       1.36863693      -1.27560148       1.28951645       0.00000000
Si      -1.33646418      -1.37096055      -1.32235713       0.00000000
Si       1.37886705       1.34116873      -1.32464351       0.00000000
Si      -1.25542143       1.36886173       1.41606394       0.00000000
Si      -0.27039771      -2.45411523       2.50285499       0.00000000
Si       2.27440980       0.44756449       2.75563818       0.00000000
Si       0.55009701       2.29766866       2.74798228       0.00000000
Si      -2.69141751      -0.01809656      -2.68046488       0.00000000
Si      -2.67173919       2.70169324       0.04060051       0.00000000
Si       0.02410920       2.69688769      -2.68039560       0.00000000
