10
Lattice="16.28999089631971 0.0 0.0 0.0 16.28999089631971 0.0 0.0 0.0 34.642051614445585" Properties=species:S:1:pos:R:3:initial_magmoms:R:1 pbc="T T T"
Si      -0.76605354      -1.81371231       1.24682155       0.00000000
Si      -1.64941137       1.72413360       0.23198243       0.00000000
Si       1.90760787       0.74617974       1.26416684       0.00000000
Si      -0.82593558      -0.09316251      -2.26098402       0.00000000
Si      -2.03111865      -0.56653362       2.73850566       0.00000000
Si       1.03135248       1.15365780      -3.15073097       0.00000000
Si       0.68835024       2.17500822       2.69800908       0.00000000
Si      -2.49046407      -2.71262709      -0.15620107       0.00000000
Si      -2.77320960       1.60969635      -1.92641090       0.00000000
Si      -3.38930066       0.73257759       1.41404922       0.00000000
