10
Lattice="16.28999089631971 0.0 0.0 0.0 16.28999089631971 0.0 0.0 0.0 34.642051614445585" Properties=species:S:1:pos:R:3:initial_magmoms:R:1 pbc="T T T"
Si      -1.12549239      -1.25134893       1.67161849       0.00000000
Si       1.66058631       1.26560268       1.17571725       0.00000000
Si      -1.85510520       1.14538248      -1.10019753       0.00000000
Si       1.35648459      -1.22774472      -1.63881245       0.00000000
Si       2.22785298       0.72308052      -2.67675818       0.00000000
Si       3.11295384       1.79339868      -0.71158278       0.00000000
Si      -2.84630283       0.19903122       2.33220814       0.00000000
Si      -1.87139520       0.16008183      -3.26660872       0.00000000
Si       2.21208426      -0.15771978       3.09287874       0.00000000
Si      -2.07731709      -3.15812601       0.59754108       0.00000000
