10
Lattice="16.28999089631971 0.0 0.0 0.0 16.28999089631971 0.0 0.0 0.0 34.642051614445585" Properties=species:S:1:pos:R:3:initial_magmoms:R:1 pbc="T T T"
Si      -1.92597389      -0.35816823       1.23443556       0.00000000
Si       1.03337244       1.92142179       0.85960835       0.00000000
Si      -0.88157245       0.69739119      -2.14673450       0.00000000
Si       1.74413772      -1.68720743      -0.22687092       0.00000000
Si      -0.92352245      -1.31469422       3.16389498       0.00000000
Si       2.21019462       2.39588433      -1.42507087       0.00000000
Si      -3.14356994      -2.09073191       0.26639753       0.00000000
Si      -0.73892743       3.53528838       1.38609854       0.00000000
Si       1.48317192      -1.97170250      -2.99130819       0.00000000
Si       2.10579201       1.44495558       2.98573081       0.00000000
