10
Lattice="16.28999089631971 0.0 0.0 0.0 16.28999089631971 0.0 0.0 0.0 34.642051614445585" Properties=species:S:1:pos:R:3:initial_magmoms:R:1 pbc="T T T"
Si      -1.40069565       1.25167473       1.38565166       0.00000000
Si       0.69967179       1.95695028      -1.18705871       0.00000000
Si      -0.98951976      -1.89736146      -1.08118908       0.00000000
Si       1.34824185      -1.44648684       1.38483757       0.00000000
Si      -0.01249443       2.60477100       2.74876519       0.00000000
Si      -2.81024003       2.57113215      -0.10086385       0.00000000
Si       2.67988419       2.72745099      -0.11408327       0.00000000
Si       2.56749948      -2.87531532      -0.04900467       0.00000000
Si       2.70330921      -0.11609883       2.74938875       0.00000000
Si      -2.72701930      -0.11165166       2.75091300       0.00000000
