10
Lattice="16.28999089631971 0.0 0.0 0.0 16.28999089631971 0.0 0.0 0.0 34.642051614445585" Properties=species:S:1:pos:R:3:initial_magmoms:R:1 pbc="T T T"
Si      -1.35668007       1.35628911       1.36126018       0.00000000
Si       1.35801585      -1.35943308       1.36167588       0.00000000
Si       1.34923554       1.37445246      -1.36996920       0.00000000
Si      -1.38820122      -1.35309627      -1.36311353       0.00000000
Si       0.01249443      -2.60477100      -2.74876519       0.00000000
Si      -2.71635750       2.71011843      -0.00138568       0.00000000
Si       2.71508688       2.71463076       0.00446883       0.00000000
Si      -2.71452488      -2.71642266       0.00214781       0.00000000
Si       0.00037467       2.71314837       2.71857116       0.00000000
Si       2.71474479      -0.00123804       2.71832867       0.00000000
