10
Lattice="16.28999089631971 0.0 0.0 0.0 16.28999089631971 0.0 0.0 0.0 34.642051614445585" Properties=species:S:1:pos:R:3:initial_magmoms:R:1 pbc="T T T"
Si       0.97262703       1.58346945      -1.38474750       0.00000000
Si      -1.38381921       1.06810272       1.64331592       0.00000000
Si       1.70285886      -1.67510070       0.30162851       0.00000000
Si      -1.76347395      -1.24317135      -1.29450491       0.00000000
Si      -1.64621853      -1.35422028       2.05829329       0.00000000
Si       0.70268544      -1.75705569       2.61537243       0.00000000
Si       2.37961062       0.22320558      -2.63137707       0.00000000
Si      -0.35595279      -2.48826492      -2.64558032       0.00000000
Si      -2.25753336      -2.93560461       0.28971164       0.00000000
Si       2.05793199       3.22867800      -0.17909951       0.00000000
