10
Lattice="16.28999089631971 0.0 0.0 0.0 16.28999089631971 0.0 0.0 0.0 34.642051614445585" Properties=species:S:1:pos:R:3:initial_magmoms:R:1 pbc="T T T"
Si      -1.32709743      -1.36567215       1.37376597       0.00000000
Si       1.35840681      -1.35483930      -1.35706849       0.00000000
Si      -1.35542574       1.35969372      -1.35706849       0.00000000
Si       1.35966114       1.36554183       1.36371977       0.00000000
Si      -2.73408102      -0.00540828       2.62039553       0.00000000
Si       0.00102627      -2.71223613      -2.71375591       0.00000000
Si      -2.71365336       0.00192222      -2.71427554       0.00000000
Si      -2.71288773      -2.71546155       0.00457275       0.00000000
Si       2.71871955      -2.71137276       0.00481525       0.00000000
Si       2.71640637       0.00210141      -2.71375591       0.00000000
