10
Lattice="16.28999089631971 0.0 0.0 0.0 16.28999089631971 0.0 0.0 0.0 34.642051614445585" Properties=species:S:1:pos:R:3:initial_magmoms:R:1 pbc="T T T"
Si       1.36418976      -1.37077092       1.26031318       0.00000000
Si      -1.32641325      -1.36347300      -1.35734562       0.00000000
Si       1.38342825       1.35759231      -1.35925094       0.00000000
Si      -1.61168373       1.07642691       1.42493231       0.00000000
Si       2.44949472       0.27443763       2.46596118       0.00000000
Si      -0.43523622       2.93387365       2.34679246       0.00000000
Si      -2.69235581       2.69292663       0.00121247       0.00000000
Si      -2.68761542      -0.00444717      -2.71562659       0.00000000
Si      -2.69568386      -2.72616408       0.01357969       0.00000000
Si       0.02847492       2.71045630      -2.71735869       0.00000000
