10
Lattice="16.28999089631971 0.0 0.0 0.0 16.28999089631971 0.0 0.0 0.0 34.642051614445585" Properties=species:S:1:pos:R:3:initial_magmoms:R:1 pbc="T T T"
Si      -1.28433618      -0.58428972      -1.81496738       0.00000000
Si       0.80073495      -1.73789865       1.32779594       0.00000000
Si      -1.50887754       1.20848826       1.34494376       0.00000000
Si       1.84251303       1.13165001      -1.01161776       0.00000000
Si       0.07211583       1.62689926       3.06724361       0.00000000
Si      -3.37159017       0.17200611      -1.19050941       0.00000000
Si       2.88447030      -0.97238268       1.93940170       0.00000000
Si       2.35328598       1.32093853       2.46592654       0.00000000
Si       3.24322497      -0.69491511      -1.61248448       0.00000000
Si      -2.21905638       2.98446551      -0.08882227       0.00000000
