10
Lattice="16.28999089631971 0.0 0.0 0.0 16.28999089631971 0.0 0.0 0.0 34.642051614445585" Properties=species:S:1:pos:R:3:initial_magmoms:R:1 pbc="T T T"
Si      -1.72196703      -0.72852138       1.59065101       0.00000000
Si       0.87806358       1.77957891       1.53891654       0.00000000
Si      -0.70973901      -0.20540061      -2.51349010       0.00000000
Si       1.99479195      -1.76156802       0.00474596       0.00000000
Si      -1.69301970      -2.37061854      -2.35434443       0.00000000
Si      -0.40169511      -2.15431992       3.08733743       0.00000000
Si      -2.93625621      -2.39210505       0.35674405       0.00000000
Si       0.94144797      -3.40609239       1.59445817       0.00000000
Si       2.31577011       0.53901981       3.07356721       0.00000000
Si       2.48824863       3.01859306       0.21072772       0.00000000
