10
Lattice="16.28999089631971 0.0 0.0 0.0 16.28999089631971 0.0 0.0 0.0 34.642051614445585" Properties=species:S:1:pos:R:3:initial_magmoms:R:1 pbc="T T T"
Si      -0.34173162      -1.89515321      -1.29505918       0.00000000
Si      -2.04661044       0.58077108       1.02640992       0.00000000
Si       0.47097648       2.12644773      -0.95286480       0.00000000
Si       1.48566429      -0.87507925       1.71066011       0.00000000
Si       1.32168915       3.15071406       1.03333834       0.00000000
Si      -0.88347186      -3.55013576       0.35466552       0.00000000
Si       0.65117646      -3.04121987       2.13495619       0.00000000
Si      -2.01280869      -1.53684910      -2.84179301       0.00000000
Si       3.61563066      -1.27885459       0.69644419       0.00000000
Si       1.54495989      -2.72371148      -2.34918276       0.00000000
