10
Lattice="16.28999089631971 0.0 0.0 0.0 16.28999089631971 0.0 0.0 0.0 34.642051614445585" Properties=species:S:1:pos:R:3:initial_magmoms:R:1 pbc="T T T"
Si      -0.67259781       2.18188260      -0.57031241       0.00000000
Si       1.34117199      -0.85154346      -1.73747307       0.00000000
Si       1.37099898       0.76299102       1.76407818       0.00000000
Si      -1.76994108      -1.39274939       0.87720652       0.00000000
Si      -3.38517603       0.33971166       0.54796828       0.00000000
Si      -2.39485806       2.44731186       0.90980471       0.00000000
Si       3.15783279      -1.68969980      -0.32307195       0.00000000
Si       0.31027563      -0.16438239       3.67950757       0.00000000
Si       3.50873568       0.07087779       1.19494360       0.00000000
Si       2.27243871       0.91681749      -3.09623902       0.00000000
