10
Lattice="16.28999089631971 0.0 0.0 0.0 16.28999089631971 0.0 0.0 0.0 34.642051614445585" Properties=species:S:1:pos:R:3:initial_magmoms:R:1 pbc="T T T"
Si       1.72441053       0.89891478       1.40302262       0.00000000
Si      -0.89202411      -1.80384546       1.44637024       0.00000000
Si      -1.79202869       1.71504378       0.27099180       0.00000000
Si       0.48571893       0.54033930      -2.46360552       0.00000000
Si      -1.17737115      -2.82875198      -1.88816608       0.00000000
Si       0.45934542       2.14609347       2.89470673       0.00000000
Si       2.49046407       2.71262709       0.15620107       0.00000000
Si      -2.25152349      -0.56151630       2.88356584       0.00000000
Si       1.66452849       2.61946458      -2.10478295       0.00000000
Si      -2.58567002      -2.79650756       0.15249440       0.00000000
