10
Lattice="16.28999089631971 0.0 0.0 0.0 16.28999089631971 0.0 0.0 0.0 34.642051614445585" Properties=species:S:1:pos:R:3:initial_magmoms:R:1 pbc="T T T"
Si      -1.23471684       1.41086061       1.38038260       0.00000000
Si       1.34335485       1.36322865      -1.35627172       0.00000000
Si      -1.37274201      -1.34491869      -1.35990914       0.00000000
Si       1.37626065      -1.35459495       1.45572911       0.00000000
Si       0.66593520       1.93995981       2.77500310       0.00000000
Si      -2.20151205      -0.38841876       2.71271665       0.00000000
Si      -0.47719926      -2.23852293       2.72037255       0.00000000
Si       2.54132145       0.36165429       2.64810919       0.00000000
Si       2.70083313      -2.71089709       0.01451503       0.00000000
Si       2.70145215       0.01244556      -2.71548802       0.00000000
