10
Lattice="16.28999089631971 0.0 0.0 0.0 16.28999089631971 0.0 0.0 0.0 34.642051614445585" Properties=species:S:1:pos:R:3:initial_magmoms:R:1 pbc="T T T"
Si      -1.76059062       1.11806415       1.05807277       0.00000000
Si      -0.44162190      -2.14772247       0.85860373       0.00000000
Si      -0.79472394      -0.20246841      -2.25564917       0.00000000
Si       2.28679020       0.68510853       0.71747193       0.00000000
Si       1.91040975      -2.81416266       0.51405369       0.00000000
Si      -2.20066497       2.66520690      -0.66401922       0.00000000
Si      -0.62060013       1.91567142       2.97526891       0.00000000
Si       3.46742424       0.44491248      -1.24562495       0.00000000
Si       2.94308172      -1.23269688       1.94830471       0.00000000
Si       2.97113310      -1.88678925      -1.40137570       0.00000000
