10
Lattice="16.28999089631971 0.0 0.0 0.0 16.28999089631971 0.0 0.0 0.0 34.642051614445585" Properties=species:S:1:pos:R:3:initial_magmoms:R:1 pbc="T T T"
Si      -1.13999049      -0.79760727      -1.91719613       0.00000000
Si       1.60775784       1.76415813      -0.40330299       0.00000000
Si      -1.81511325       0.83825082       1.37019783       0.00000000
Si       0.80345538      -1.94471649       1.25917000       0.00000000
Si       0.62060013      -1.91567142      -2.97526891       0.00000000
Si       3.61781352       0.65497203      -0.92587863       0.00000000
Si      -1.20909267       0.28810494       3.62981009       0.00000000
Si       2.90739033      -1.23056289      -2.25779698       0.00000000
Si       0.63804672       3.28919535      -1.97248488       0.00000000
Si       0.45102123      -1.53609813       3.54478455       0.00000000
