10
Lattice="16.28999089631971 0.0 0.0 0.0 16.28999089631971 0.0 0.0 0.0 34.642051614445585" Properties=species:S:1:pos:R:3:initial_magmoms:R:1 pbc="T T T"
Si       0.35243415      -0.40861836      -2.28561456       0.00000000
Si      -0.65697570      -1.88672409       1.27497167       0.00000000
Si      -1.66011390       1.82420307       0.08502554       0.00000000
Si       1.97949564       0.79962723       1.28421764       0.00000000
Si      -1.97302851      -0.55988730       2.71119036       0.00000000
Si       0.76266522       2.16643968       2.73493057       0.00000000
Si       2.65732254      -0.89726949      -2.35756614       0.00000000
Si      -3.44033397       0.75465054       1.28079500       0.00000000
Si      -0.47153034       3.56563665       1.30323267       0.00000000
Si      -0.45102123       1.53609813      -3.54478455       0.00000000
