10
Lattice="16.28999089631971 0.0 0.0 0.0 16.28999089631971 0.0 0.0 0.0 34.642051614445585" Properties=species:S:1:pos:R:3:initial_magmoms:R:1 pbc="T T T"
Si       1.35708005       1.35704824       1.35706849       0.00000000
Si      -1.35774686      -1.35879517       1.35679135       0.00000000
Si      -1.35587351       1.35805007      -1.36115625       0.00000000
Si       1.35570192      -1.36120609      -1.36299228       0.00000000
Si       0.00245790       2.71825693      -2.69617853       0.00000000
Si      -0.00085288       2.71429846       2.71389448       0.00000000
Si       2.71344084       2.71503151       0.00010393       0.00000000
Si      -2.71533917       2.71363057      -0.00024249       0.00000000
Si       2.71461372      -0.00062715       2.71455268       0.00000000
Si      -2.71543691      -0.00063085       2.71420626       0.00000000
