10
Lattice="16.28999089631971 0.0 0.0 0.0 16.28999089631971 0.0 0.0 0.0 34.642051614445585" Properties=species:S:1:pos:R:3:initial_magmoms:R:1 pbc="T T T"
Si      -1.32525666       1.28273976       1.55919458       0.00000000
Si      -1.64623482      -1.01784807      -1.50962667       0.00000000
Si       1.38660480      -1.42319214       1.55173614       0.00000000
Si       0.78543864       2.10898715      -1.36738632       0.00000000
Si      -2.76296319       2.52329886       0.02454391       0.00000000
Si       2.64644082       2.65922100       0.17618611       0.00000000
Si      -2.69957880      -2.66237244       0.08008554       0.00000000
Si       0.03497463       2.64296520       2.94431968       0.00000000
Si      -2.67687054      -0.07042167       2.94740283       0.00000000
Si       2.78316279      -2.86852239       0.20954296       0.00000000
