10
Lattice="16.28999089631971 0.0 0.0 0.0 16.28999089631971 0.0 0.0 0.0 34.642051614445585" Properties=species:S:1:pos:R:3:initial_magmoms:R:1 pbc="T T T"
Si      -1.35089712      -1.36249560       1.39099000       0.00000000
Si       1.36889757       1.35159759       1.39237569       0.00000000
Si       1.39655799      -1.44533025      -1.34219318       0.00000000
Si      -1.38660480       1.42319214      -1.55173614       0.00000000
Si       2.69754255       2.70296712       0.01523212       0.00000000
Si      -2.70910845      -2.70692559       0.00439261       0.00000000
Si      -2.71186146       2.70593190       0.00745844       0.00000000
Si      -2.70695817      -0.00558747       2.75252732       0.00000000
Si       0.00946449       2.70778741       2.75238875       0.00000000
Si       2.73696435      -2.73668742       0.04266864       0.00000000
