10
Lattice="16.28999089631971 0.0 0.0 0.0 16.28999089631971 0.0 0.0 0.0 34.642051614445585" Properties=species:S:1:pos:R:3:initial_magmoms:R:1 pbc="T T T"
Si      -2.08373535      -0.76551597      -0.61160576       0.00000000
Si       0.92792727      -1.15880544       1.82393968       0.00000000
Si       1.67598036      -0.16278597      -1.64539445       0.00000000
Si      -0.53118432       2.29332121       0.52652484       0.00000000
Si       3.05193150       0.97103061      -0.11075070       0.00000000
Si       0.35875467       0.27746757      -3.55188618       0.00000000
Si      -2.88447030       0.97238268      -1.93940170       0.00000000
Si       0.55658043       2.40839409       2.68295911       0.00000000
Si       3.24814455      -0.87493590       1.44055588       0.00000000
Si       0.40690791       0.25410771       3.62990012       0.00000000
