10
Lattice="16.28999089631971 0.0 0.0 0.0 16.28999089631971 0.0 0.0 0.0 34.642051614445585" Properties=species:S:1:pos:R:3:initial_magmoms:R:1 pbc="T T T"
Si       1.35833141       1.36020685      -1.33502227       0.00000000
Si       1.35587351      -1.35805007       1.36115625       0.00000000
Si      -1.35946566       1.35558049       1.36091376       0.00000000
Si      -1.38595320      -1.36454718      -1.37641608       0.00000000
Si       0.02839347       2.71380811      -2.67916234       0.00000000
Si       2.71390490       2.71216282       0.00876444       0.00000000
Si      -2.71459818      -2.71591671       0.00072748       0.00000000
Si       2.71157543      -2.71925616      -0.00183603       0.00000000
Si       2.71295356      -0.00100184       2.71822474       0.00000000
Si      -2.71829601       2.71296104       0.00349885       0.00000000
