10
Lattice="16.28999089631971 0.0 0.0 0.0 16.28999089631971 0.0 0.0 0.0 34.642051614445585" Properties=species:S:1:pos:R:3:initial_magmoms:R:1 pbc="T T T"
Si       1.33860611       1.34291502      -1.37754195       0.00000000
Si      -1.37303523      -1.37161800      -1.37054425       0.00000000
Si       1.63871277      -1.13384916       1.33035945       0.00000000
Si      -1.21961601       1.51093008       1.40809626       0.00000000
Si       0.27474714      -2.60374473       2.46897504       0.00000000
Si       2.68776433       2.71428867      -0.00446883       0.00000000
Si      -2.72106531       2.71187775      -0.00443419       0.00000000
Si       2.70013822      -0.01317861      -2.73291298       0.00000000
Si      -0.01409085       2.70259245      -2.73457580       0.00000000
Si       2.69556887      -2.74473142      -0.01638570       0.00000000
