10
Lattice="16.28999089631971 0.0 0.0 0.0 16.28999089631971 0.0 0.0 0.0 34.642051614445585" Properties=species:S:1:pos:R:3:initial_magmoms:R:1 pbc="T T T"
Si       1.36396563       1.46989557      -1.13861559       0.00000000
Si      -0.20579157       0.54159363       2.24466763       0.00000000
Si      -1.56315582      -1.40376583      -1.08173331       0.00000000
Si       2.42082173      -0.14098669      -2.48536074       0.00000000
Si      -0.27474714       2.60374473      -2.46897504       0.00000000
Si      -0.65013390      -1.55436641       3.23397589       0.00000000
Si      -0.28546596      -2.83840937      -2.47479491       0.00000000
Si      -1.95934491       2.44726299       2.25377850       0.00000000
Si      -3.00447873      -0.13017013      -2.47368636       0.00000000
Si       1.62991291       1.81729611       3.09246303       0.00000000
