10
Lattice="16.28999089631971 0.0 0.0 0.0 16.28999089631971 0.0 0.0 0.0 34.642051614445585" Properties=species:S:1:pos:R:3:initial_magmoms:R:1 pbc="T T T"
Si      -1.35818201       1.29911121      -1.32445644       0.00000000
Si       1.26506511      -1.24717869      -1.49168411       0.00000000
Si       1.35596331       1.36076886       1.32526707       0.00000000
Si      -1.35529542      -1.35565380       1.33264583       0.00000000
Si       0.38170728       2.29066722      -2.50652323       0.00000000
Si       2.03111865       0.56653362      -2.73850566       0.00000000
Si      -2.25137411      -0.43104969      -2.62371494       0.00000000
Si      -0.45934542      -2.14609347      -2.89470673       0.00000000
Si      -2.71110415       0.00226431       2.68462193       0.00000000
Si       0.00011403      -2.71083519       2.68514156       0.00000000
