10
Lattice="16.28999089631971 0.0 0.0 0.0 16.28999089631971 0.0 0.0 0.0 34.642051614445585" Properties=species:S:1:pos:R:3:initial_magmoms:R:1 pbc="T T T"
Si       1.55881846       1.39892004       1.01314201       0.00000000
Si       1.19968749      -0.81163296      -1.88033697       0.00000000
Si      -0.07038909      -1.82128553       1.54022112       0.00000000
Si      -2.18598768       0.95821038       0.05438805       0.00000000
Si      -1.95178635      -0.77976972       2.64783205       0.00000000
Si      -0.55702026      -3.40980778      -0.04403007       0.00000000
Si      -3.21865965      -0.62325540      -1.37986297       0.00000000
Si       1.04430956      -3.17166952      -1.79962095       0.00000000
Si      -2.64132576       1.67321106       2.26857066       0.00000000
Si      -0.02019960      -0.38799522      -3.86442694       0.00000000
