10
Lattice="16.28999089631971 0.0 0.0 0.0 16.28999089631971 0.0 0.0 0.0 34.642051614445585" Properties=species:S:1:pos:R:3:initial_magmoms:R:1 pbc="T T T"
Si      -1.35715248      -1.35469269       1.35710313       0.00000000
Si       1.35778779      -1.35803214      -1.35696456       0.00000000
Si      -1.35824391       1.35819504      -1.35703385       0.00000000
Si       1.35786924       1.35847197       1.35724170       0.00000000
Si       2.71056620      -0.00120546       2.71427554       0.00000000
Si       2.71419307      -2.71482624      -0.00013857       0.00000000
Si       2.71435825       2.71526607       0.00038106       0.00000000
Si       0.00032580       2.71394658       2.71569587       0.00000000
Si      -0.00029322      -2.71549413      -2.71427554       0.00000000
Si      -2.71490769       2.71505430       0.00010393       0.00000000
