10
Lattice="16.28999089631971 0.0 0.0 0.0 16.28999089631971 0.0 0.0 0.0 34.642051614445585" Properties=species:S:1:pos:R:3:initial_magmoms:R:1 pbc="T T T"
Si      -1.24036947      -1.67063724      -1.11665252       0.00000000
Si       1.61930160       0.59442210      -1.63666464       0.00000000
Si       1.21387934      -1.05446799       1.81150318       0.00000000
Si      -1.26086229       1.96845102       0.67022015       0.00000000
Si       2.74839083       2.33372169      -0.44009287       0.00000000
Si       0.43225515      -3.29903451      -1.78832763       0.00000000
Si       2.32004853       0.57181158       3.07323668       0.00000000
Si      -2.92148118       1.39170357       2.19076457       0.00000000
Si      -0.00700470       3.30481746       2.14413634       0.00000000
Si      -3.07928241      -0.60202953      -2.41947152       0.00000000
