10
Lattice="16.28999089631971 0.0 0.0 0.0 16.28999089631971 0.0 0.0 0.0 34.642051614445585" Properties=species:S:1:pos:R:3:initial_magmoms:R:1 pbc="T T T"
Si      -1.66061889      -0.57674745       1.52054442       0.00000000
Si       1.25385759       1.33636644       1.47391619       0.00000000
Si      -1.39644396       1.51951491      -1.19781889       0.00000000
Si       1.26086229      -1.96845102      -0.67022015       0.00000000
Si       2.73305705       2.14573509      -0.21124735       0.00000000
Si      -0.38465577      -1.46121300       3.22919529       0.00000000
Si       1.70683362      -0.24653286       3.17820216       0.00000000
Si      -2.42307234       1.61160228       2.17219642       0.00000000
Si      -0.29598930       2.70635544       2.64429856       0.00000000
Si      -3.29066145       0.33194133      -1.89492128       0.00000000
