10
Lattice="16.28999089631971 0.0 0.0 0.0 16.28999089631971 0.0 0.0 0.0 34.642051614445585" Properties=species:S:1:pos:R:3:initial_magmoms:R:1 pbc="T T T"
Si      -1.24234056       0.21999645       1.95405530       0.00000000
Si      -1.36971207      -1.31802390      -1.36853501       0.00000000
Si       1.67376492      -0.81972909       1.44256512       0.00000000
Si       1.17778329       1.42693884      -1.51160677       0.00000000
Si       2.99460699       1.16010864       1.64989791       0.00000000
Si      -1.54183221       2.53115649       2.08701157       0.00000000
Si       2.59431282       2.70023040      -0.23217116       0.00000000
Si       2.89036728      -2.56963347       0.12959599       0.00000000
Si      -0.04826727      -2.48995908      -2.96809800       0.00000000
Si      -2.09183148      -3.28489479      -0.20788707       0.00000000
