10
Lattice="16.28999089631971 0.0 0.0 0.0 16.28999089631971 0.0 0.0 0.0 34.642051614445585" Properties=species:S:1:pos:R:3:initial_magmoms:R:1 pbc="T T T"
Si       1.13460080      -1.32421410       1.51590238       0.00000000
Si      -1.79374077      -0.96806583      -1.21378888       0.00000000
Si       1.71235171       0.45041850      -1.64442447       0.00000000
Si      -1.02543921       1.71201384       1.43591384       0.00000000
Si      -2.15334252       2.67911856      -0.39661707       0.00000000
Si      -2.72626182       1.03270455      -1.98963270       0.00000000
Si      -2.99490021      -1.95043428       0.52933084       0.00000000
Si       2.75490683       0.06488307       2.46395194       0.00000000
Si       1.38639533       2.78651853      -2.25239281       0.00000000
Si      -0.34459866      -2.13358275       3.20106593       0.00000000
