10
Lattice="16.28999089631971 0.0 0.0 0.0 16.28999089631971 0.0 0.0 0.0 34.642051614445585" Properties=species:S:1:pos:R:3:initial_magmoms:R:1 pbc="T T T"
Si      -1.25385759      -1.33636644      -1.47391619       0.00000000
Si       0.45297603      -1.58289930       1.70428597       0.00000000
Si      -1.54984689       1.36998900       1.17038237       0.00000000
Si       1.47919946       0.80936865      -1.68516354       0.00000000
Si      -2.91447648      -1.91311389       0.04662823       0.00000000
Si      -1.63851336      -2.79757944       1.75527909       0.00000000
Si       2.32705323      -2.73300588       0.92910034       0.00000000
Si      -3.67692993       0.27523584       0.69828022       0.00000000
Si      -2.65030155       0.18314847      -2.67173508       0.00000000
Si      -2.20250574       3.15174033      -0.16028886       0.00000000
