10
Lattice="16.28999089631971 0.0 0.0 0.0 16.28999089631971 0.0 0.0 0.0 34.642051614445585" Properties=species:S:1:pos:R:3:initial_magmoms:R:1 pbc="T T T"
Si      -0.83427606      -1.82237859       1.33100176       0.00000000
Si       1.83155379       0.84836691       1.32950175       0.00000000
Si      -1.81983735       1.82980683       0.02106238       0.00000000
Si       0.43199451      -0.47794860      -2.52523376       0.00000000
Si      -2.14516494      -0.49282137       2.83060158       0.00000000
Si       0.55290816       2.25049608       2.79501378       0.00000000
Si       0.76727922       1.80467136      -3.27474961       0.00000000
Si      -3.48557130       0.79853580       1.44573976       0.00000000
Si      -2.49349401      -2.96139168      -0.00183603       0.00000000
Si       2.55023927      -1.51154910      -2.55187352       0.00000000
