10
Lattice="16.28999089631971 0.0 0.0 0.0 16.28999089631971 0.0 0.0 0.0 34.642051614445585" Properties=species:S:1:pos:R:3:initial_magmoms:R:1 pbc="T T T"
Si       1.35658753      -1.35690813       1.35751884       0.00000000
Si      -1.35769005       1.35816432       1.35741491       0.00000000
Si       1.35774686       1.35879517      -1.35679135       0.00000000
Si      -1.35878148      -1.35791811      -1.35734562       0.00000000
Si       0.00040725       2.71328099       2.71451804       0.00000000
Si       2.71480736      -2.71437012      -0.00013857       0.00000000
Si      -2.71441899      -2.71497285       0.00045035       0.00000000
Si       0.00003258      -2.71503801       2.71437947       0.00000000
Si      -2.71272483       0.00092853      -2.71722012       0.00000000
Si       2.71482691       2.71584341       0.00027714       0.00000000
