10
Lattice="16.28999089631971 0.0 0.0 0.0 16.28999089631971 0.0 0.0 0.0 34.642051614445585" Properties=species:S:1:pos:R:3:initial_magmoms:R:1 pbc="T T T"
Si       0.77159214      -1.96822296      -1.09839614       0.00000000
Si      -1.73421711       0.60707943      -1.52078692       0.00000000
Si       1.52371773       1.87527222      -0.38698657       0.00000000
Si      -1.51088121      -0.40203720       1.97241560       0.00000000
Si       0.37129797      -0.42810120      -2.98046522       0.00000000
Si       2.60177594       1.35177678       1.70965549       0.00000000
Si       2.69554607      -2.27006037       0.30270242       0.00000000
Si      -1.97822502       2.94039387      -0.78301473       0.00000000
Si      -0.57836016      -2.40280758       2.74825942       0.00000000
Si       0.07439643       3.80171133      -0.00900694       0.00000000
