10
Lattice="16.28999089631971 0.0 0.0 0.0 16.28999089631971 0.0 0.0 0.0 34.642051614445585" Properties=species:S:1:pos:R:3:initial_magmoms:R:1 pbc="T T T"
Si       0.10151928       2.36727909       0.54665188       0.00000000
Si       2.41334721      -0.55457676       0.26944603       0.00000000
Si      -1.33840269       1.11765690      -1.79622602       0.00000000
Si      -1.17682218      -0.47446254       2.28467922       0.00000000
Si      -2.21019462      -2.39588433       1.42507087       0.00000000
Si      -2.07556266       2.88601785      -0.32889182       0.00000000
Si      -3.09176707      -1.69849314      -0.72166362       0.00000000
Si       2.17160361       3.15949437      -0.27665158       0.00000000
Si       2.38835835       2.00305098      -2.33484094       0.00000000
Si       0.13980078       2.13869781      -3.35993446       0.00000000
