10
Lattice="16.28999089631971 0.0 0.0 0.0 16.28999089631971 0.0 0.0 0.0 34.642051614445585" Properties=species:S:1:pos:R:3:initial_magmoms:R:1 pbc="T T T"
Si      -0.72208357       1.74128697       1.34677979       0.00000000
Si      -1.62030603      -1.38909717      -0.94804956       0.00000000
Si       0.91671975      -1.56141279       1.47900858       0.00000000
Si       1.39901778       0.98898219      -1.61813114       0.00000000
Si       1.35298224       2.85744519       1.65492101       0.00000000
Si       2.97320193      -0.62437941       2.06896305       0.00000000
Si      -0.34410996      -3.16956159      -1.84711522       0.00000000
Si      -2.75490683      -0.06488307      -2.46395194       0.00000000
Si       0.60253452      -3.64203675       0.29061233       0.00000000
Si       1.20365181      -0.33363549      -3.51017713       0.00000000
