10
Lattice="16.28999089631971 0.0 0.0 0.0 16.28999089631971 0.0 0.0 0.0 34.642051614445585" Properties=species:S:1:pos:R:3:initial_magmoms:R:1 pbc="T T T"
Si      -1.59029659      -1.52751330       0.81502400       0.00000000
Si       1.23527070       0.27383490       2.03199996       0.00000000
Si      -1.20390756       2.07430344      -0.21429585       0.00000000
Si       1.12682817      -0.29698299      -2.10883607       0.00000000
Si       1.69802073       2.55166560       1.81462096       0.00000000
Si       3.18331035       0.64005039      -1.51888160       0.00000000
Si      -2.43642104      -2.51693532      -1.14644470       0.00000000
Si      -3.17017151      -0.11473047       1.91241553       0.00000000
Si      -0.29840022      -3.28623057       1.76435532       0.00000000
Si      -0.51197515       3.00571677      -2.24106486       0.00000000
