10
Lattice="10.86 0.0 0.0 0.0 10.86 0.0 0.0 0.0 10.86" Properties=species:S:1:pos:R:3:initial_magmoms:R:1 pbc="T T T"
Si       0.70654074      -1.21100946      -1.83576354       0.00000000
Si      -2.00845926      -1.21100946       0.87923646       0.00000000
Si       1.83133266      -0.02875728       1.91781084       0.00000000
Si       2.27560440       1.62674112      -0.95853618       0.00000000
Si      -2.00845926       1.50399054      -1.83576354       0.00000000
Si       2.06404074      -2.56850946      -0.47826354       0.00000000
Si      -0.36931602       2.61361104       2.15392896       0.00000000
Si      -0.65095926      -2.56850946       2.23673646       0.00000000
Si       3.42154074      -1.21100946       0.87923646       0.00000000
Si       0.70654074      -1.21100946       3.59423646       0.00000000
