10
Lattice="10.86 0.0 0.0 0.0 10.86 0.0 0.0 0.0 10.86" Properties=species:S:1:pos:R:3:initial_magmoms:R:1 pbc="T T T"
Si       1.35750000       1.35750000       1.35750000       0.00000000
Si      -1.35750000      -1.35750000       1.35750000       0.00000000
Si       1.35750000      -1.35750000      -1.35750000       0.00000000
Si      -1.35750000       1.35750000      -1.35750000       0.00000000
Si      -2.06404074       2.56850946       0.47826354       0.00000000
Si      -0.23270808       2.53975218       2.39607438       0.00000000
Si       2.28797394       2.78433024      -0.24948678       0.00000000
Si       0.01680042      -2.89308228      -2.42721000       0.00000000
Si      -2.70486762      -2.69027178      -0.05634168       0.00000000
Si       0.04981482      -2.77816176       2.64539826       0.00000000
