10
Lattice="10.86 0.0 0.0 0.0 10.86 0.0 0.0 0.0 10.86" Properties=species:S:1:pos:R:3:initial_magmoms:R:1 pbc="T T T"
Si       1.59020808      -1.18225218      -1.03857438       0.00000000
Si      -1.12479192      -1.18225218       1.67642562       0.00000000
Si      -1.83133266       0.02875728      -1.91781084       0.00000000
Si       1.59020808       1.53274782       1.67642562       0.00000000
Si       0.44427174       1.65549840      -2.87634702       0.00000000
Si      -2.20064868       2.64236832       0.23611812       0.00000000
Si       0.23270808      -2.53975218      -2.39607438       0.00000000
Si      -2.48229192      -2.53975218       0.31892562       0.00000000
Si       2.52068202       0.24457806      -2.64556116       0.00000000
Si       2.94770808      -2.53975218       0.31892562       0.00000000
