10
Lattice="10.86 0.0 0.0 0.0 10.86 0.0 0.0 0.0 10.86" Properties=species:S:1:pos:R:3:initial_magmoms:R:1 pbc="T T T"
Si       1.35750000       1.35750000       1.35750000       0.00000000
Si       1.35750000      -1.35750000      -1.35750000       0.00000000
Si      -1.35750000       1.35750000      -1.35750000       0.00000000
Si      -1.35750000      -1.35750000       1.35750000       0.00000000
Si       2.30820612      -0.02337072       2.66454444       0.00000000
Si      -2.64345432      -0.15303912      -2.47454874       0.00000000
Si      -2.65210974      -2.65174050      -0.02078604       0.00000000
Si       2.60392392      -2.69389902      -0.20070366       0.00000000
Si      -2.35544712       2.99461242      -0.31878444       0.00000000
Si       0.00000000       2.71500000       2.71500000       0.00000000
