10
Lattice="10.86 0.0 0.0 0.0 10.86 0.0 0.0 0.0 10.86" Properties=species:S:1:pos:R:3:initial_magmoms:R:1 pbc="T T T"
Si      -1.41450414      -1.22135904       1.22042508       0.00000000
Si       1.30049586       1.49364096       1.22042508       0.00000000
Si       1.26917562      -1.37114016      -1.71330618       0.00000000
Si      -1.41450414       1.49364096      -1.49457492       0.00000000
Si      -0.05700414      -2.57885904       2.57792508       0.00000000
Si       2.70036072      -2.51064738      -0.13755276       0.00000000
Si       2.65799586       0.13614096       2.57792508       0.00000000
Si       2.56869408       2.75935224      -0.31361508       0.00000000
Si      -2.77200414       0.13614096       2.57792508       0.00000000
Si      -2.77200414      -2.57885904      -0.13707492       0.00000000
