10
Lattice="10.86 0.0 0.0 0.0 10.86 0.0 0.0 0.0 10.86" Properties=species:S:1:pos:R:3:initial_magmoms:R:1 pbc="T T T"
Si       1.90547388      -1.47574368       0.66820494       0.00000000
Si      -1.70024160       1.86949470      -0.31177974       0.00000000
Si      -2.06724444      -0.56069094       1.59770148       0.00000000
Si      -0.67060500      -1.47921888      -2.19287292       0.00000000
Si       1.96657224       0.79752582      -2.09299350       0.00000000
Si      -0.63605934      -1.70019816       3.17345490       0.00000000
Si       1.80876558       1.04519898       3.02544396       0.00000000
Si       0.67907580      -3.12590982       1.81643274       0.00000000
Si      -2.03592420      -3.12590982      -0.89856726       0.00000000
Si       3.39407580      -0.41090982       1.81643274       0.00000000
