10
Lattice="16.28999089631971 0.0 0.0 0.0 16.28999089631971 0.0 0.0 0.0 34.40785480372833" Properties=species:S:1:pos:R:3:initial_magmoms:R:1 pbc="T T T"
Si      -2.11571166      -0.10384875       0.96152804       0.00000000
Si      -0.05722514      -1.00113453      -2.12300024       0.00000000
Si       1.29928226      -1.05971337       1.64455875       0.00000000
Si       0.07467499       2.30528654      -0.56219025       0.00000000
Si      -3.41237937       0.10976202      -1.04317792       0.00000000
Si       3.17199694       0.34533171       1.69107819       0.00000000
Si      -2.35076007      -1.36632375      -2.48603771       0.00000000
Si       0.33787904       0.75410224      -3.68147048       0.00000000
Si       1.41683090       2.53515473      -2.50200297       0.00000000
Si       0.40733960      -0.50316552       3.82295566       0.00000000
