10
Lattice="16.28999089631971 0.0 0.0 0.0 16.28999089631971 0.0 0.0 0.0 34.40785480372833" Properties=species:S:1:pos:R:3:initial_magmoms:R:1 pbc="T T T"
Si      -1.35125550       1.34970632       1.35525734       0.00000000
Si       1.35900954       1.35444671      -1.35618635       0.00000000
Si      -1.35488817      -1.35942631      -1.35570464       0.00000000
Si       1.35829278      -1.36121042       1.36213892       0.00000000
Si      -0.00641826       2.69622143       2.72224777       0.00000000
Si      -2.71251143       2.71345625       0.00319993       0.00000000
Si      -2.71371363      -0.00199064      -2.71268238       0.00000000
Si       0.00100998       2.71347254      -2.71347376       0.00000000
Si      -2.71086614      -2.71721340       0.00227092       0.00000000
Si       2.71624347      -0.00155081      -2.71275120       0.00000000
