10
Lattice="16.28999089631971 0.0 0.0 0.0 16.28999089631971 0.0 0.0 0.0 34.40785480372833" Properties=species:S:1:pos:R:3:initial_magmoms:R:1 pbc="T T T"
Si       1.34273583      -1.31255782       1.35238084       0.00000000
Si      -1.40616909       1.41585675       1.31260190       0.00000000
Si      -0.77302566      -1.96665490      -1.13991360       0.00000000
Si       1.14723954       1.45149927      -1.59103527       0.00000000
Si      -0.60690024      -0.60479231      -2.99694101       0.00000000
Si      -1.17180486       1.77011538      -2.59626131       0.00000000
Si      -2.56192830       2.64654996      -0.73704419       0.00000000
Si       2.68236027      -2.63840563      -0.16148648       0.00000000
Si      -0.04095306      -2.66093470       2.71295764       0.00000000
Si       2.61045621       2.75688213      -0.20496082       0.00000000
