10
Lattice="16.28999089631971 0.0 0.0 0.0 16.28999089631971 0.0 0.0 0.0 34.40785480372833" Properties=species:S:1:pos:R:3:initial_magmoms:R:1 pbc="T T T"
Si       1.35369900      -1.35542521      -1.35869813       0.00000000
Si       1.35553977       1.35939029       1.35780353       0.00000000
Si      -1.35917244      -1.35627229       1.35831964       0.00000000
Si      -1.36190916       1.36455096      -1.36372168       0.00000000
Si       2.71345788      -2.71187722      -0.00006882       0.00000000
Si      -0.00783549      -2.70949888      -2.71896526       0.00000000
Si      -0.00175932      -2.71373428       2.71522856       0.00000000
Si      -2.71554300      -2.71368541       0.00096342       0.00000000
Si       2.71363707       0.00138916       2.71577909       0.00000000
Si       2.71464705       2.71496427      -0.00010322       0.00000000
