10
Lattice="16.28999089631971 0.0 0.0 0.0 16.28999089631971 0.0 0.0 0.0 34.40785480372833" Properties=species:S:1:pos:R:3:initial_magmoms:R:1 pbc="T T T"
Si       1.35729909       1.35791811      -1.35776912       0.00000000
Si      -1.35769005      -1.35742941      -1.35807879       0.00000000
Si       1.35971001      -1.35382932       1.36041852       0.00000000
Si      -1.35685926       1.36026387       1.36186365       0.00000000
Si      -2.71427075      -2.71450044       0.00086020       0.00000000
Si       2.71640637       2.71300176       0.00013763       0.00000000
Si       2.71495656       0.00052128      -2.71522856       0.00000000
Si      -0.00074934      -2.71448415      -2.71581350       0.00000000
Si      -2.71497448      -0.00004887      -2.71543501       0.00000000
Si      -2.71599749       2.71445157      -0.00020645       0.00000000
