10
Lattice="16.28999089631971 0.0 0.0 0.0 16.28999089631971 0.0 0.0 0.0 34.40785480372833" Properties=species:S:1:pos:R:3:initial_magmoms:R:1 pbc="T T T"
Si       0.34735167       1.47742155       1.79939418       0.00000000
Si       2.21237748      -0.47091132      -1.11952900       0.00000000
Si      -0.60826860       2.09438901      -1.34741235       0.00000000
Si       0.16850376      -2.45850309       0.72638463       0.00000000
Si      -2.63476089      -0.10886607       0.37428885       0.00000000
Si      -0.84488085      -2.78731674      -1.49282002       0.00000000
Si      -1.89113868       0.68434290      -2.77406603       0.00000000
Si       0.94398921      -1.86193071      -2.72868204       0.00000000
Si       2.09600172       2.70189198       0.58902840       0.00000000
Si      -2.84009634      -1.30403079      -1.61840876       0.00000000
