10
Lattice="16.28999089631971 0.0 0.0 0.0 16.28999089631971 0.0 0.0 0.0 34.40785480372833" Properties=species:S:1:pos:R:3:initial_magmoms:R:1 pbc="T T T"
Si      -0.27730467      -2.17367244       0.80837859       0.00000000
Si      -0.36611775      -0.98591967      -2.08556447       0.00000000
Si      -1.84813308       1.21267647       0.79403051       0.00000000
Si       1.96463916       0.86104053       0.97216007       0.00000000
Si      -1.13593428      -1.58884515       2.87477788       0.00000000
Si       1.23285978       3.09018042       1.04035648       0.00000000
Si       1.53183015      -3.36007314      -0.02649406       0.00000000
Si      -0.86301162       2.92128570       2.09526749       0.00000000
Si      -1.97325657      -2.76069888      -1.50355528       0.00000000
Si       0.17184321       0.73221921      -3.66612457       0.00000000
