10
Lattice="16.28999089631971 0.0 0.0 0.0 16.28999089631971 0.0 0.0 0.0 34.40785480372833" Properties=species:S:1:pos:R:3:initial_magmoms:R:1 pbc="T T T"
Si       1.72553454      -0.42515271      -1.62773330       0.00000000
Si      -0.71451198       2.22606108       0.67040302       0.00000000
Si      -2.02357638      -0.36615033      -1.32373973       0.00000000
Si       0.47873052      -1.33260345       2.05129423       0.00000000
Si      -1.36694277      -2.53915488      -2.07417546       0.00000000
Si      -0.31213269       1.81170864       3.17822092       0.00000000
Si       0.87084711      -2.24564166      -2.88602925       0.00000000
Si      -1.91220165       1.29200877      -3.10052794       0.00000000
Si       0.13882338       3.75864057      -0.95677975       0.00000000
Si       3.61276362      -1.36107837      -0.55575598       0.00000000
