10
Lattice="16.28999089631971 0.0 0.0 0.0 16.28999089631971 0.0 0.0 0.0 34.40785480372833" Properties=species:S:1:pos:R:3:initial_magmoms:R:1 pbc="T T T"
Si      -1.33177266      -1.33959186      -1.36771299       0.00000000
Si       1.35855342      -1.35229806       1.35666807       0.00000000
Si      -1.35619137       1.36233270       1.35670247       0.00000000
Si       1.35448092       1.36692648      -1.38045767       0.00000000
Si      -2.62874988       0.10094913      -2.66891557       0.00000000
Si       2.71394658      -2.71019988      -0.00646868       0.00000000
Si       0.00100998      -2.71101438       2.71354258       0.00000000
Si      -2.71393029       0.00386073       2.71330172       0.00000000
Si       2.71596654       0.00325800       2.71392106       0.00000000
Si      -2.71524978      -2.71463076      -0.00829230       0.00000000
