10
Lattice="16.28999089631971 0.0 0.0 0.0 16.28999089631971 0.0 0.0 0.0 34.40785480372833" Properties=species:S:1:pos:R:3:initial_magmoms:R:1 pbc="T T T"
Si      -1.35832536      -1.35692442      -1.35597991       0.00000000
Si       1.35728280      -1.35747828       1.35770030       0.00000000
Si       1.35773892       1.35847197      -1.35659925       0.00000000
Si      -1.35762489       1.35769005       1.35800997       0.00000000
Si       2.71393029      -0.00386073      -2.71330172       0.00000000
Si      -2.71475456       2.71456560       0.00055053       0.00000000
Si       2.71469592       2.71482624       0.00075697       0.00000000
Si       2.71494027      -2.71487511       0.00024086       0.00000000
Si      -2.71345788      -0.00047241      -2.71684573       0.00000000
Si      -2.71499077      -2.71544526       0.00003441       0.00000000
