10
Lattice="16.28999089631971 0.0 0.0 0.0 16.28999089631971 0.0 0.0 0.0 34.40785480372833" Properties=species:S:1:pos:R:3:initial_magmoms:R:1 pbc="T T T"
Si       1.18874646      -1.50120495       1.36637109       0.00000000
Si       1.37459907       1.33108848      -1.37865470       0.00000000
Si      -1.34112312      -1.38377034      -1.37696871       0.00000000
Si      -1.32164028       1.49224545       1.52832895       0.00000000
Si      -2.68995141       2.67757101      -0.02098880       0.00000000
Si       2.72515410       2.67939549       0.01004710       0.00000000
Si       0.01787013       2.68692147      -2.73866033       0.00000000
Si      -2.69837334      -0.02694366      -2.73948611       0.00000000
Si       2.69905752      -2.73887028      -0.02707900       0.00000000
Si      -2.71604799      -2.74419711       0.00282145       0.00000000
