10
Lattice="16.28999089631971 0.0 0.0 0.0 16.28999089631971 0.0 0.0 0.0 34.40785480372833" Properties=species:S:1:pos:R:3:initial_magmoms:R:1 pbc="T T T"
Si      -1.18874646       1.50120495      -1.36637109       0.00000000
Si       1.87980084       0.76188330       1.21415065       0.00000000
Si      -1.36792017      -1.32957351       1.42125164       0.00000000
Si       1.51031106      -1.23766533      -1.39345008       0.00000000
Si       1.33635015      -0.72207054       3.35769239       0.00000000
Si      -2.52986958       0.11743461      -2.74333980       0.00000000
Si       0.18718839      -2.59882515      -2.75249229       0.00000000
Si       2.78347230      -2.59434540       0.02188341       0.00000000
Si      -2.65079025      -2.73961962      -0.00540204       0.00000000
Si      -2.29426731       0.29611962       3.03191864       0.00000000
