10
Lattice="16.28999089631971 0.0 0.0 0.0 16.28999089631971 0.0 0.0 0.0 34.40785480372833" Properties=species:S:1:pos:R:3:initial_magmoms:R:1 pbc="T T T"
Si      -1.24196589       0.91852794      -1.75979072       0.00000000
Si      -0.64195632      -2.09393289       0.89632512       0.00000000
Si      -0.02008557       1.60528176       1.78428912       0.00000000
Si       2.37123756      -0.81011799      -1.27357305       0.00000000
Si       1.07048106       1.68153525      -2.38990211       0.00000000
Si      -3.01246083      -2.01282498       0.91659136       0.00000000
Si      -2.16841077       1.46298861       2.84370757       0.00000000
Si      -0.01824480       3.79607499       0.79241334       0.00000000
Si       1.73723076       0.94708431       3.34038523       0.00000000
Si      -3.66912702       0.21994758       1.46756464       0.00000000
