10
Lattice="16.28999089631971 0.0 0.0 0.0 16.28999089631971 0.0 0.0 0.0 34.40785480372833" Properties=species:S:1:pos:R:3:initial_magmoms:R:1 pbc="T T T"
Si       2.10013938       0.89982702       0.42063626       0.00000000
Si      -0.03518640      -2.33377056      -0.05178385       0.00000000
Si      -1.03117329       0.60098697       2.02999575       0.00000000
Si      -0.71548938       0.82238436      -2.09361591       0.00000000
Si      -3.15856584       0.94988619       1.18621146       0.00000000
Si       3.19015215       0.30648006      -1.59693825       0.00000000
Si       1.43283582       0.96467751      -3.15303435       0.00000000
Si       0.42296985      -2.86409151       2.18242263       0.00000000
Si       2.58196500       0.00283446       2.56930477       0.00000000
Si      -1.51757640       2.96706060      -1.52585158       0.00000000
