10
Lattice="16.28999089631971 0.0 0.0 0.0 16.28999089631971 0.0 0.0 0.0 34.40785480372833" Properties=species:S:1:pos:R:3:initial_magmoms:R:1 pbc="T T T"
Si      -0.80208702       2.14467624       0.56776433       0.00000000
Si       0.71548938      -0.82238436       2.09361591       0.00000000
Si      -1.50071625      -1.24304103      -1.37614292       0.00000000
Si       2.14832520       0.14229315      -1.05941844       0.00000000
Si      -3.46603959      -1.28445021      -0.11323631       0.00000000
Si       2.81562876       0.07744266       2.51425217       0.00000000
Si       2.15016597       2.33308638      -2.05129423       0.00000000
Si       1.09874421       3.36999375       1.32188170       0.00000000
Si       0.68030298      -3.15615492       2.04183206       0.00000000
Si      -2.86594857       1.89796419       1.70315536       0.00000000
