10
Lattice="16.28999089631971 0.0 0.0 0.0 16.28999089631971 0.0 0.0 0.0 34.40785480372833" Properties=species:S:1:pos:R:3:initial_magmoms:R:1 pbc="T T T"
Si       1.50214977      -0.53256897      -1.71165410       0.00000000
Si       0.58888350      -1.37645613       1.81511858       0.00000000
Si      -2.13486966       0.00114030      -1.07638152       0.00000000
Si       0.03240081       2.03937768       1.26018839       0.00000000
Si       2.47200750       1.59254298      -1.96699493       0.00000000
Si       2.48971473      -0.15113862       2.56923595       0.00000000
Si      -2.21153040       2.03367618       2.04451588       0.00000000
Si      -1.47497805      -1.62316818       2.95050961       0.00000000
Si       3.59476317       0.71474004       0.63024903       0.00000000
Si       3.54113649      -1.18804599      -0.80393998       0.00000000
