10
Lattice="16.28999089631971 0.0 0.0 0.0 16.28999089631971 0.0 0.0 0.0 34.40785480372833" Properties=species:S:1:pos:R:3:initial_magmoms:R:1 pbc="T T T"
Si      -0.58888350       1.37645613      -1.81511858       0.00000000
Si       0.80208702      -2.14467624      -0.56776433       0.00000000
Si      -2.06386155      -0.24671205       1.13539103       0.00000000
Si       1.90083123       1.22531751       0.75411738       0.00000000
Si      -0.55648269       3.41583381      -0.55493019       0.00000000
Si      -3.39573195      -1.19998656      -0.61280424       0.00000000
Si       0.95649993       3.28036617       1.30746481       0.00000000
Si       1.51757640      -2.96706060       1.52585158       0.00000000
Si       0.91326627       0.84388716      -3.52677268       0.00000000
Si      -1.64098944      -2.01717441       2.71206304       0.00000000
