10
Lattice="16.28999089631971 0.0 0.0 0.0 16.28999089631971 0.0 0.0 0.0 34.40785480372833" Properties=species:S:1:pos:R:3:initial_magmoms:R:1 pbc="T T T"
Si       2.21706900      -0.31539069       0.58046083       0.00000000
Si      -0.05362668      -1.90278603      -1.43418901       0.00000000
Si      -1.10504844      -0.86587866       1.93898693       0.00000000
Si      -0.34209000       2.48295438      -0.08584765       0.00000000
Si      -1.12275567       0.87780294      -2.59724396       0.00000000
Si      -2.09261340      -1.24730901      -2.34190313       0.00000000
Si      -2.04937974       1.18917000       2.49233436       0.00000000
Si       0.02736720       2.54967822       2.48651942       0.00000000
Si       3.29496201       1.56998133      -0.02360380       0.00000000
Si      -3.59476317      -0.71474004      -0.63024903       0.00000000
