10
Lattice="16.28999089631971 0.0 0.0 0.0 16.28999089631971 0.0 0.0 0.0 34.40785480372833" Properties=species:S:1:pos:R:3:initial_magmoms:R:1 pbc="T T T"
Si       0.90098361      -0.94126878       1.96173053       0.00000000
Si      -2.28750696       0.46121877       0.61036128       0.00000000
Si       1.18451106       2.14555494      -0.03674761       0.00000000
Si       0.13040145      -1.59066963      -1.88100966       0.00000000
Si       2.12229378       1.57099035      -2.13504299       0.00000000
Si      -1.40475186      -3.46004487      -0.55087006       0.00000000
Si       1.88903727      -0.52114968      -3.25529455       0.00000000
Si      -3.40182441       1.45623219      -1.24030064       0.00000000
Si      -1.93189626       1.22105688      -3.17601881       0.00000000
Si      -1.68386472      -1.08607059      -3.36171811       0.00000000
