10
Lattice="16.28999089631971 0.0 0.0 0.0 16.28999089631971 0.0 0.0 0.0 34.40785480372833" Properties=species:S:1:pos:R:3:initial_magmoms:R:1 pbc="T T T"
Si      -1.45551150       1.22854293      -1.32505755       0.00000000
Si       1.20866817      -1.35022434      -1.46150542       0.00000000
Si      -1.34682462      -1.35494519       1.34239568       0.00000000
Si       1.37201126       1.35733167       1.33795706       0.00000000
Si       0.26217519       2.25901575      -2.58533230       0.00000000
Si       2.03948261       0.49078512      -2.74634158       0.00000000
Si      -0.62871255      -2.01113571      -2.92567542       0.00000000
Si      -2.46677841      -0.37949184      -2.65726024       0.00000000
Si      -2.70523143       0.00094482       2.69796269       0.00000000
Si       0.00750016      -2.71264974       2.69748098       0.00000000
