10
Lattice="16.28999089631971 0.0 0.0 0.0 16.28999089631971 0.0 0.0 0.0 34.40785480372833" Properties=species:S:1:pos:R:3:initial_magmoms:R:1 pbc="T T T"
Si       1.16466984       0.08912259       2.06392192       0.00000000
Si      -1.17208179      -1.88966348      -1.03743181       0.00000000
Si       1.83963852       1.18379430      -1.16663338       0.00000000
Si      -1.93122837       1.65027474       0.21491158       0.00000000
Si       0.14216283       2.18968551      -2.51483711       0.00000000
Si      -0.29906811       2.02904982       2.83926895       0.00000000
Si      -2.58370803      -0.54777406      -2.50344810       0.00000000
Si       2.84685084      -0.52159765      -2.51518118       0.00000000
Si      -1.20796866       3.55732875      -1.05683785       0.00000000
Si       3.30751250       1.23924546       1.88565472       0.00000000
