10
Lattice="16.28999089631971 0.0 0.0 0.0 16.28999089631971 0.0 0.0 0.0 34.40785480372833" Properties=species:S:1:pos:R:3:initial_magmoms:R:1 pbc="T T T"
Si       1.31374030      -1.49931531      -1.22674049       0.00000000
Si      -1.33602435      -1.36809936       1.38169291       0.00000000
Si       1.37967245       1.34478837       1.38224344       0.00000000
Si      -1.32800967       1.26526059      -1.70752516       0.00000000
Si      -2.68115481       2.69731449      -0.01919271       0.00000000
Si       2.72473775       2.69920413       0.02984195       0.00000000
Si      -2.71094922      -2.72429073       0.00970646       0.00000000
Si      -2.69540856      -0.01334151       2.74228347       0.00000000
Si       0.02249649       2.70342324       2.74235229       0.00000000
Si       0.38095047       2.35815669      -3.04393184       0.00000000
