10
Lattice="16.28999089631971 0.0 0.0 0.0 16.28999089631971 0.0 0.0 0.0 34.40785480372833" Properties=species:S:1:pos:R:3:initial_magmoms:R:1 pbc="T T T"
Si      -0.72325971      -1.90705401       1.27174943       0.00000000
Si      -1.39344660       1.32750468      -1.44495867       0.00000000
Si       1.35013149      -1.36764324      -1.45799925       0.00000000
Si       0.90513756       1.69569126       1.47534082       0.00000000
Si      -2.55971286      -2.58758505      -0.07187805       0.00000000
Si       3.04760718      -2.37353445      -0.10979553       0.00000000
Si       0.76273038       0.89497260       3.69860560       0.00000000
Si      -0.02319696       2.68633503      -2.82340692       0.00000000
Si       2.68170489      -0.02003670      -2.82925626       0.00000000
Si       1.20796866      -3.55732875       1.05683785       0.00000000
