10
Lattice="16.28999089631971 0.0 0.0 0.0 16.28999089631971 0.0 0.0 0.0 34.40785480372833" Properties=species:S:1:pos:R:3:initial_magmoms:R:1 pbc="T T T"
Si       1.35666541       1.35852084      -1.35601432       0.00000000
Si       1.35728443      -1.35738054       1.35735622       0.00000000
Si      -1.35821690      -1.35881406      -1.35587668       0.00000000
Si      -1.35893466       1.35795069       1.35776912       0.00000000
Si      -2.71440826      -0.00175932       2.71299205       0.00000000
Si       2.71422514      -2.71443528      -0.00037849       0.00000000
Si      -0.00102301       2.71450044       2.71522856       0.00000000
Si      -2.71517389       2.71511946      -0.00027526       0.00000000
Si       2.71497448       0.00004887       2.71543501       0.00000000
Si       2.71499077       2.71544526      -0.00003441       0.00000000
