10
Lattice="16.28999089631971 0.0 0.0 0.0 16.28999089631971 0.0 0.0 0.0 34.40785480372833" Properties=species:S:1:pos:R:3:initial_magmoms:R:1 pbc="T T T"
Si       1.32027192      -0.72808155      -1.75280592       0.00000000
Si      -0.09633906       2.32086888      -0.17523930       0.00000000
Si      -2.25533421      -0.54605709      -0.56212144       0.00000000
Si       0.71447940      -0.51883650       2.22966465       0.00000000
Si      -1.43928666      -0.83259819       3.21545024       0.00000000
Si      -1.25234262       2.87202474       1.82688607       0.00000000
Si       3.43476672      -1.21420773      -0.62371153       0.00000000
Si      -2.61206892       1.11130380       2.48844627       0.00000000
Si       0.95219937      -2.99203317      -2.20650815       0.00000000
Si      -2.71349046      -0.01573614      -2.79632792       0.00000000
