10
Lattice="16.28999089631971 0.0 0.0 0.0 16.28999089631971 0.0 0.0 0.0 34.40785480372833" Properties=species:S:1:pos:R:3:initial_magmoms:R:1 pbc="T T T"
Si       1.70896014       1.09289610      -1.33640668       0.00000000
Si       1.32800967      -1.26526059       1.70752516       0.00000000
Si      -1.25099055      -1.72428021      -1.34507747       0.00000000
Si      -1.35314514       1.43205390       1.68833244       0.00000000
Si       2.67000172       2.68170867       0.25174177       0.00000000
Si       2.64174997      -2.76457590       0.48078466       0.00000000
Si      -2.77663050      -2.69733078       0.20696336       0.00000000
Si      -2.55744855       2.95712370       0.26352991       0.00000000
Si      -0.00801468      -2.63335995       3.08921807       0.00000000
Si       2.70768212       0.07952778       3.08976859       0.00000000
