10
Lattice="16.28999089631971 0.0 0.0 0.0 16.28999089631971 0.0 0.0 0.0 34.40785480372833" Properties=species:S:1:pos:R:3:initial_magmoms:R:1 pbc="T T T"
Si       1.35710643       1.35690813      -1.35663366       0.00000000
Si       1.35583299      -1.35780408       1.35821642       0.00000000
Si      -1.35785295      -1.35799956      -1.35649603       0.00000000
Si      -1.36115982       1.35713619       1.35935188       0.00000000
Si      -0.00032580       2.71432125      -2.71409310       0.00000000
Si      -2.71401174       2.71511946       0.00048171       0.00000000
Si       2.71513316      -0.00071676      -2.71402429       0.00000000
Si      -2.71521720      -0.00058644      -2.71402429       0.00000000
Si       2.71387395      -2.71622718       0.00068816       0.00000000
Si      -0.00027693      -2.71560816      -2.71481567       0.00000000
