10
Lattice="16.28999089631971 0.0 0.0 0.0 16.28999089631971 0.0 0.0 0.0 34.40785480372833" Properties=species:S:1:pos:R:3:initial_magmoms:R:1 pbc="T T T"
Si      -1.79193258      -0.87314400       1.17544179       0.00000000
Si       1.32828660      -1.41411861      -1.26889358       0.00000000
Si      -1.40133096       1.34276841      -1.27099246       0.00000000
Si       1.73853396       1.01056644       1.26882476       0.00000000
Si      -0.54892413      -2.06107596       2.77296498       0.00000000
Si       2.62604574      -2.57743638       0.40240009       0.00000000
Si      -0.03888423       2.67063147      -2.63447328       0.00000000
Si       2.67810858      -0.04430880      -2.63560874       0.00000000
Si       0.84717774       1.66583169       3.27814138       0.00000000
Si      -2.74914927      -0.04442283      -2.63099809       0.00000000
