10
Lattice="16.28999089631971 0.0 0.0 0.0 16.28999089631971 0.0 0.0 0.0 34.40785480372833" Properties=species:S:1:pos:R:3:initial_magmoms:R:1 pbc="T T T"
Si      -1.29775914       1.16331777      -1.67129367       0.00000000
Si      -1.73180619      -1.17457416       1.26362917       0.00000000
Si       0.89105878       1.84849146       1.35739063       0.00000000
Si       1.39783091      -1.52770878      -1.64156526       0.00000000
Si      -2.62604574       2.57743638      -0.40240009       0.00000000
Si       2.75011757       2.60811045      -0.14554531       0.00000000
Si      -0.88751178       3.58800282       0.86642468       0.00000000
Si      -2.63694375      -2.87026542      -0.21171165       0.00000000
Si       0.05206284       2.53312758      -3.03800883       0.00000000
Si      -3.17496987       0.51636042       2.37056489       0.00000000
