10
Lattice="16.28999089631971 0.0 0.0 0.0 16.28999089631971 0.0 0.0 0.0 34.40785480372833" Properties=species:S:1:pos:R:3:initial_magmoms:R:1 pbc="T T T"
Si      -1.07325036       1.37280717       1.54002763       0.00000000
Si       0.36896850      -1.87623333       1.37352792       0.00000000
Si       2.12360905       0.80910801      -0.80270129       0.00000000
Si      -1.49708358      -0.50943717      -1.90468227       0.00000000
Si       1.47338719      -1.14598521      -2.17616040       0.00000000
Si       1.85703298      -2.80780956      -0.21969428       0.00000000
Si      -3.34394604      -0.21458817      -0.47462221       0.00000000
Si       0.00464265       3.25817919       0.93596299       0.00000000
Si       1.15908467      -0.61170579       3.25402146       0.00000000
Si      -0.85911831       1.39777974      -3.15176126       0.00000000
