10
Lattice="16.28999089631971 0.0 0.0 0.0 16.28999089631971 0.0 0.0 0.0 34.40785480372833" Properties=species:S:1:pos:R:3:initial_magmoms:R:1 pbc="T T T"
Si      -1.87838361      -1.19681001      -0.52327495       0.00000000
Si       1.71281924       0.42332823      -1.50159403       0.00000000
Si       1.30697601      -1.26486963       1.50076824       0.00000000
Si      -0.72130491       2.07837594       0.89109512       0.00000000
Si       2.55478906       1.84990869       0.23232197       0.00000000
Si      -3.03438717      -0.64565415       1.47885043       0.00000000
Si      -2.36020923      -0.29981745      -2.67194346       0.00000000
Si       2.95437788       0.33140376       2.12478945       0.00000000
Si      -0.50412663       1.71864387       3.21734267       0.00000000
Si       2.82115011      -1.58676003      -1.86115631       0.00000000
