10
Lattice="16.28999089631971 0.0 0.0 0.0 16.28999089631971 0.0 0.0 0.0 34.40785480372833" Properties=species:S:1:pos:R:3:initial_magmoms:R:1 pbc="T T T"
Si       0.01327635      -2.14351965      -1.05195193       0.00000000
Si       2.15128088       0.47555397      -1.04999068       0.00000000
Si       0.04676859       0.18717210       2.53200663       0.00000000
Si      -1.04381433      -1.15870770      -2.95481059       0.00000000
Si      -0.96575265       2.58425930      -2.37448739       0.00000000
Si      -3.00959379       1.85345895      -1.42324730       0.00000000
Si       2.61645812       2.79570024      -0.87316862       0.00000000
Si      -0.37177038       0.87487074      -3.91141830       0.00000000
Si       0.50990178       3.87199358      -1.06671291       0.00000000
Si       4.08290021      -0.16074972       0.10325803       0.00000000
