10
Lattice="16.28999089631971 0.0 0.0 0.0 16.28999089631971 0.0 0.0 0.0 34.40785480372833" Properties=species:S:1:pos:R:3:initial_magmoms:R:1 pbc="T T T"
Si       1.35609363       1.35829278       1.35663366       0.00000000
Si      -1.35712967       1.35687555      -1.35745945       0.00000000
Si       1.35762489      -1.35769005      -1.35800997       0.00000000
Si      -1.35838889      -1.35863487       1.35725300       0.00000000
Si       0.00138465       2.71122615       2.71240712       0.00000000
Si      -2.71300895       0.00047241      -2.71474685       0.00000000
Si      -0.00070047      -2.71461447      -2.71398988       0.00000000
Si       0.00100998       2.71432125      -2.71447159       0.00000000
Si       2.71479366       2.71427238      -0.00020645       0.00000000
Si      -2.71515641       2.71450044      -0.00006882       0.00000000
