10
Lattice="16.28999089631971 0.0 0.0 0.0 16.28999089631971 0.0 0.0 0.0 34.40785480372833" Properties=species:S:1:pos:R:3:initial_magmoms:R:1 pbc="T T T"
Si       1.14298785      -2.25007254       0.41623205       0.00000000
Si       2.24313300       1.57887567       0.30519784       0.00000000
Si      -2.58324702       0.71387667      -1.07903093       0.00000000
Si      -0.72418824       1.47349566      -2.58196687       0.00000000
Si      -0.36031851       0.80194041       2.96275881       0.00000000
Si       0.68277906       2.96565966      -1.05990015       0.00000000
Si      -2.92066831       0.56488833       1.41492060       0.00000000
Si       3.16948014      -0.04681746      -1.30546915       0.00000000
Si       1.88661006      -1.45686357      -2.73212283       0.00000000
Si       0.93765240      -3.44523726      -1.57646556       0.00000000
