10
Lattice="16.28999089631971 0.0 0.0 0.0 16.28999089631971 0.0 0.0 0.0 34.40785480372833" Properties=species:S:1:pos:R:3:initial_magmoms:R:1 pbc="T T T"
Si       2.09587140       0.16889472      -1.05491101       0.00000000
Si      -0.98512146      -1.70860923      -1.30123698       0.00000000
Si      -1.15251750       2.04703398       0.27601997       0.00000000
Si       0.17241336      -1.13300208       2.09719433       0.00000000
Si      -0.46845153       0.86294646      -3.21486530       0.00000000
Si      -3.34310385       1.16017380       0.66747835       0.00000000
Si      -1.99931242      -1.98529488       2.31516821       0.00000000
Si       3.42774180       1.12216923       0.69328425       0.00000000
Si       2.82765078      -2.06024517      -1.12310742       0.00000000
Si       0.86301162      -2.92128570      -2.09526749       0.00000000
