10
Lattice="16.28999089631971 0.0 0.0 0.0 16.28999089631971 0.0 0.0 0.0 34.40785480372833" Properties=species:S:1:pos:R:3:initial_magmoms:R:1 pbc="T T T"
Si      -2.21268210      -0.55490256       0.26807175       0.00000000
Si       0.85634901      -2.18971809       0.01431368       0.00000000
Si       0.23587920       0.95796603       2.14577825       0.00000000
Si       0.09034434       1.12467789      -2.08439460       0.00000000
Si      -1.81309329      -2.07340749       2.16053923       0.00000000
Si       0.24516450       3.25063692       1.67108722       0.00000000
Si       0.22540473      -3.13927848      -2.04338042       0.00000000
Si       2.48114619       0.56563767       2.75861689       0.00000000
Si       2.42815482       1.14451911      -2.67221872       0.00000000
Si      -0.79451217       3.33039276      -1.66055841       0.00000000
