10
Lattice="16.28999089631971 0.0 0.0 0.0 16.28999089631971 0.0 0.0 0.0 34.40785480372833" Properties=species:S:1:pos:R:3:initial_magmoms:R:1 pbc="T T T"
Si       0.85144572      -1.23325074       1.77334643       0.00000000
Si      -0.01314603      -1.60746462      -1.71089713       0.00000000
Si       1.79030358       1.53075501      -0.72253095       0.00000000
Si      -1.82498336       1.46206008       1.09220915       0.00000000
Si      -2.02317369       2.21030865      -1.27869982       0.00000000
Si       0.18208962       2.00248083      -2.59098173       0.00000000
Si       1.97237691       0.54625257       2.85301287       0.00000000
Si       2.27572929      -2.42084061      -1.17100318       0.00000000
Si       2.52643239       2.39432049       1.50442515       0.00000000
Si      -0.89219353      -2.39541192       2.90940049       0.00000000
