10
Lattice="16.28999089631971 0.0 0.0 0.0 16.28999089631971 0.0 0.0 0.0 34.40785480372833" Properties=species:S:1:pos:R:3:initial_magmoms:R:1 pbc="T T T"
Si       1.35597797       1.35778709      -1.35797556       0.00000000
Si       1.35640151      -1.36050822       1.35501649       0.00000000
Si      -1.36013955      -1.35723393      -1.35745945       0.00000000
Si      -1.36415452       1.35998895       1.36255181       0.00000000
Si       2.71111049      -2.71344159      -0.00075697       0.00000000
Si       0.01395564      -2.71314837       2.71333613       0.00000000
Si       2.71239740       0.00000000      -2.71450600       0.00000000
Si       2.71086614       2.71721340      -0.00227092       0.00000000
Si      -0.00211281      -2.71485882      -2.71485008       0.00000000
Si      -0.00284749       2.71522276      -2.71495330       0.00000000
