10
Lattice="16.28999089631971 0.0 0.0 0.0 16.28999089631971 0.0 0.0 0.0 34.40785480372833" Properties=species:S:1:pos:R:3:initial_magmoms:R:1 pbc="T T T"
Si       1.26788589      -1.45106433      -1.30681106       0.00000000
Si      -1.47014124       1.26804618      -1.29586935       0.00000000
Si       1.30329872       1.41231042       1.33392446       0.00000000
Si      -1.04705736      -1.75498686       1.24167695       0.00000000
Si       2.61033175      -0.09842418      -2.66513070       0.00000000
Si      -0.11022428       2.62207299      -2.65759537       0.00000000
Si       2.59057198      -2.73487923       0.22970697       0.00000000
Si      -2.76060246       2.62974357       0.18294667       0.00000000
Si       2.72691928       2.70741708       0.02425755       0.00000000
Si      -0.10748274      -2.80986210      -2.66275656       0.00000000
