10
Lattice="16.28999089631971 0.0 0.0 0.0 16.28999089631971 0.0 0.0 0.0 34.36671206372826" Properties=species:S:1:pos:R:3:initial_magmoms:R:1 pbc="T T T"
Si       0.46858674       2.11134594       0.77108635       0.00000000
Si       0.97440753      -1.71411525       1.18520546       0.00000000
Si      -2.23779218      -0.38876085       0.59516305       0.00000000
Si       0.37723405      -0.25409142      -2.32405020       0.00000000
Si      -0.51620078      -3.45286098       0.54457522       0.00000000
Si      -3.09717113       1.72973689      -0.08395792       0.00000000
Si      -2.56694792      -2.54093049      -0.35133109       0.00000000
Si      -1.77289187      -0.55679220      -3.15325069       0.00000000
Si       2.48144430       2.71191263      -0.26685767       0.00000000
Si       1.74407745      -2.19743955      -2.41687474       0.00000000
