10
Lattice="16.28999089631971 0.0 0.0 0.0 16.28999089631971 0.0 0.0 0.0 34.36671206372826" Properties=species:S:1:pos:R:3:initial_magmoms:R:1 pbc="T T T"
Si       0.59880411      -1.27208610      -1.89061699       0.00000000
Si      -1.36684340       1.94334813       0.09282454       0.00000000
Si       2.09059344       1.10102481       0.34456085       0.00000000
Si      -1.13332788      -1.94178429       0.99172076       0.00000000
Si       3.04867350      -0.60869214       1.63802151       0.00000000
Si      -2.62413492      -2.18584107      -0.94343551       0.00000000
Si      -1.74407745       2.19743955       2.41687474       0.00000000
Si       2.79212229       1.57579686      -1.85625026       0.00000000
Si      -0.76966992       0.48332430       3.60208020       0.00000000
Si       1.48090761      -0.30017583       3.42299517       0.00000000
