10
Lattice="16.28999089631971 0.0 0.0 0.0 16.28999089631971 0.0 0.0 0.0 34.36671206372826" Properties=species:S:1:pos:R:3:initial_magmoms:R:1 pbc="T T T"
Si      -1.14065838       2.04324885      -0.50550025       0.00000000
Si      -1.50236154      -0.73638945       1.74555093       0.00000000
Si       1.86877251      -0.95615784      -1.24991802       0.00000000
Si       2.05713378       0.76419648       1.41673413       0.00000000
Si       0.40943286       0.15732882       2.98973520       0.00000000
Si      -1.50900786      -1.90162944      -2.25432010       0.00000000
Si       0.74156967      -2.68512957      -2.43340514       0.00000000
Si      -3.64406518       0.28867509       1.09427109       0.00000000
Si      -2.01482865       1.92383175      -2.66843922       0.00000000
Si      -3.12266431       2.52546055       0.67853674       0.00000000
