10
Lattice="16.28999089631971 0.0 0.0 0.0 16.28999089631971 0.0 0.0 0.0 34.36671206372826" Properties=species:S:1:pos:R:3:initial_magmoms:R:1 pbc="T T T"
Si       0.61230689      -1.91979509      -1.33315424       0.00000000
Si      -2.08686696       0.74505736      -1.16389809       0.00000000
Si       1.58119211       1.95289896      -0.34490452       0.00000000
Si       1.78954121      -0.51589615       2.63994920       0.00000000
Si      -2.91350301       1.62033861       0.93972390       0.00000000
Si      -0.78829332       1.95871449      -2.78147140       0.00000000
Si       2.01864377      -0.70718378      -2.77964996       0.00000000
Si       3.35238752       0.68443087      -1.37807156       0.00000000
Si       1.69067720      -3.40192445       0.10523093       0.00000000
Si      -1.08894156       2.73504702       2.52667645       0.00000000
