10
Lattice="16.28999089631971 0.0 0.0 0.0 16.28999089631971 0.0 0.0 0.0 34.36671206372826" Properties=species:S:1:pos:R:3:initial_magmoms:R:1 pbc="T T T"
Si       1.71043371      -1.60316406      -0.03312953       0.00000000
Si       0.79480539       1.79792730      -1.34332679       0.00000000
Si      -1.86233796      -0.91685007      -1.31418380       0.00000000
Si       0.36077463       0.55514691       2.49633063       0.00000000
Si       0.37458855      -3.20043603       1.22324943       0.00000000
Si       2.08919250       0.45528921      -2.79435892       0.00000000
Si      -0.64780443      -2.25461093      -2.80704024       0.00000000
Si       2.50059645       2.81077434       0.09423358       0.00000000
Si       0.82111374      -3.44278399      -1.45931451       0.00000000
Si       3.51994320      -0.87612507      -1.36800210       0.00000000
