10
Lattice="16.28999089631971 0.0 0.0 0.0 16.28999089631971 0.0 0.0 0.0 34.36671206372826" Properties=species:S:1:pos:R:3:initial_magmoms:R:1 pbc="T T T"
Si       0.98929170      -1.91859710       0.88501206       0.00000000
Si      -1.42460937       0.53219430       1.84016663       0.00000000
Si      -1.16611965       0.06281424      -2.08578565       0.00000000
Si       1.92863826       1.43874909      -0.22871060       0.00000000
Si       0.65956581       0.89735094      -3.29205792       0.00000000
Si      -0.28411389       2.38931946       2.71308160       0.00000000
Si       1.98246042       2.39432049       1.92161578       0.00000000
Si       1.32069546       2.77586487      -2.02877125       0.00000000
Si      -0.60737265      -3.62173031       0.70434616       0.00000000
Si      -2.11390443      -2.15144148      -2.49980167       0.00000000
