10
Lattice="16.28999089631971 0.0 0.0 0.0 16.28999089631971 0.0 0.0 0.0 34.36671206372826" Properties=species:S:1:pos:R:3:initial_magmoms:R:1 pbc="T T T"
Si       0.30444381      -2.34945783       0.04594832       0.00000000
Si      -0.63513081       1.47962070       1.87257445       0.00000000
Si      -2.25310248       1.02104091      -0.22029075       0.00000000
Si       2.13402258       0.56985678      -1.20857484       0.00000000
Si      -0.53235720       2.90170512      -2.06581858       0.00000000
Si       3.66122637      -0.85810833       0.36081631       0.00000000
Si       0.36694854      -3.07651311       2.25971568       0.00000000
Si       1.02807819      -1.19799918       3.52300236       0.00000000
Si       2.90471877      -0.13561425       2.54399728       0.00000000
Si       2.91652902       2.52328842      -0.27572428       0.00000000
