10
Lattice="16.28999089631971 0.0 0.0 0.0 16.28999089631971 0.0 0.0 0.0 34.36671206372826" Properties=species:S:1:pos:R:3:initial_magmoms:R:1 pbc="T T T"
Si       1.96498125      -0.92755260      -1.02574383       0.00000000
Si       1.61940519       1.01931417       1.45659954       0.00000000
Si      -0.89269200       2.07127350      -0.96017210       0.00000000
Si      -1.72074528      -1.88066421       1.84552784       0.00000000
Si      -3.17688069      -0.00008145       0.81724087       0.00000000
Si      -2.08725399       0.65208870      -2.46911217       0.00000000
Si       0.60835005      -2.06342172      -2.50932125       0.00000000
Si      -2.97049779      -1.28935350      -1.36972044       0.00000000
Si      -1.21777524      -2.99661066      -1.38319220       0.00000000
Si       0.53235720      -2.90170512       2.06581858       0.00000000
