10
Lattice="16.28999089631971 0.0 0.0 0.0 16.28999089631971 0.0 0.0 0.0 34.36671206372826" Properties=species:S:1:pos:R:3:initial_magmoms:R:1 pbc="T T T"
Si       0.27407925       0.19635966      -2.33470389       0.00000000
Si      -0.77542029      -2.15596521       0.60086793       0.00000000
Si      -1.92554316       1.37086866       0.25465748       0.00000000
Si       2.04695253       0.26933886       1.29792834       0.00000000
Si      -1.17555156       3.04238556       1.69218348       0.00000000
Si      -2.18110068      -1.69567497       2.46601917       0.00000000
Si       3.53427840      -1.21070538       0.19200693       0.00000000
Si      -3.36886974       0.19450260       1.65781675       0.00000000
Si       2.91524211       2.30822784       0.65121519       0.00000000
Si       1.51169571      -1.62735471      -3.11730309       0.00000000
