10
Lattice="16.28999089631971 0.0 0.0 0.0 16.28999089631971 0.0 0.0 0.0 34.36671206372826" Properties=species:S:1:pos:R:3:initial_magmoms:R:1 pbc="T T T"
Si      -1.42700400      -1.80283059       0.34139911       0.00000000
Si      -1.18776906       1.89017757      -0.80820242       0.00000000
Si       1.40568039      -0.46029024      -1.86515124       0.00000000
Si       1.22868954       0.24568578       2.11554724       0.00000000
Si      -2.12955912      -1.00062954       2.42367936       0.00000000
Si       3.11129226      -1.58144949      -0.62152234       0.00000000
Si       3.37849713      -0.44010693       1.41790260       0.00000000
Si       2.18110068       1.69567497      -2.46601917       0.00000000
Si      -0.04789260      -3.69613584       0.63155742       0.00000000
Si      -2.91990105       1.22047938       2.07413533       0.00000000
