10
Lattice="16.28999089631971 0.0 0.0 0.0 16.28999089631971 0.0 0.0 0.0 34.36671206372826" Properties=species:S:1:pos:R:3:initial_magmoms:R:1 pbc="T T T"
Si       0.35253189      -0.43210854      -2.30690090       0.00000000
Si      -0.87073308      -1.91787057       1.18937930       0.00000000
Si       1.87478352       0.97463070       1.23203529       0.00000000
Si      -1.83226662       1.63774773      -0.39391117       0.00000000
Si       1.46917881       1.78769718      -2.35188695       0.00000000
Si      -2.14667991      -0.42733557       2.54821924       0.00000000
Si       0.57375009       2.34320754       2.56705564       0.00000000
Si      -2.02062789      -0.08260659      -3.06056332       0.00000000
Si      -3.47996754       1.03088007       1.17908990       0.00000000
Si       2.92568400       2.50462401      -0.17678216       0.00000000
