10
Lattice="16.28999089631971 0.0 0.0 0.0 16.28999089631971 0.0 0.0 0.0 34.36671206372826" Properties=species:S:1:pos:R:3:initial_magmoms:R:1 pbc="T T T"
Si       1.34039007       1.33986879      -1.37218110       0.00000000
Si      -1.35840681       1.35252612       1.35903239       0.00000000
Si       1.35746199      -1.36119240       1.36085382       0.00000000
Si      -1.35975888      -1.37160171      -1.39994598       0.00000000
Si       2.61633690      -0.15066621      -2.73102103       0.00000000
Si      -2.71188589       2.70904329      -0.00158087       0.00000000
Si       2.71119357       2.71586880      -0.00450204       0.00000000
Si       2.71249677      -2.71492398       0.00230257       0.00000000
Si      -0.00011403       2.71215468       2.71538417       0.00000000
Si       2.71446786      -0.00263898       2.71607151       0.00000000
