10
Lattice="16.28999089631971 0.0 0.0 0.0 16.28999089631971 0.0 0.0 0.0 34.36671206372826" Properties=species:S:1:pos:R:3:initial_magmoms:R:1 pbc="T T T"
Si      -1.35697329      -1.35570267      -1.35827632       0.00000000
Si      -1.35513252       1.35886293       1.35827632       0.00000000
Si       1.36068741      -1.35588186       1.35583628       0.00000000
Si       1.35741312       1.35917244      -1.35789829       0.00000000
Si       0.00327429      -2.70622512       2.71064156       0.00000000
Si       0.00711873       2.70415629       2.72218878       0.00000000
Si       2.71324611      -2.71464705      -0.00175270       0.00000000
Si      -2.71464379      -2.71337643      -0.00096227       0.00000000
Si       0.00035838      -2.71322982      -2.71555600       0.00000000
Si       2.71448415       0.00192222      -2.71576221       0.00000000
