10
Lattice="16.28999089631971 0.0 0.0 0.0 16.28999089631971 0.0 0.0 0.0 34.36671206372826" Properties=species:S:1:pos:R:3:initial_magmoms:R:1 pbc="T T T"
Si      -1.34604270      -1.34928441      -1.40202517       0.00000000
Si       1.36601424       1.36557441      -1.39353659       0.00000000
Si      -1.46579049       1.31851260       1.49433421       0.00000000
Si       1.31712795      -1.53701037       1.48718593       0.00000000
Si       0.28312020       2.55593358       2.58348466       0.00000000
Si      -2.70345582      -2.69962767      -0.04721989       0.00000000
Si      -2.69961138       2.71075374      -0.03567267       0.00000000
Si       2.70914103      -2.72233593      -0.03295770       0.00000000
Si       2.73781143       2.72282463      -0.01195962       0.00000000
Si      -2.70673011       0.00659745      -2.75786145       0.00000000
