10
Lattice="16.28999089631971 0.0 0.0 0.0 16.28999089631971 0.0 0.0 0.0 34.36671206372826" Properties=species:S:1:pos:R:3:initial_magmoms:R:1 pbc="T T T"
Si       1.74891069       1.23742098       1.08915045       0.00000000
Si      -1.23382089       1.39224114      -1.53000688       0.00000000
Si      -1.49222916      -1.35242838       1.35353371       0.00000000
Si       1.46579049      -1.31851260      -1.49433421       0.00000000
Si       2.09435643      -0.36603630       2.87529257       0.00000000
Si      -2.56171653       2.74111830      -0.17025279       0.00000000
Si      -2.68679115      -2.77161318      -0.15540636       0.00000000
Si      -2.59607214       0.04694778      -2.89391934       0.00000000
Si       0.11974779      -2.66779701      -2.89635938       0.00000000
Si      -2.88968310       0.04637763       2.71462810       0.00000000
