10
Lattice="16.28999089631971 0.0 0.0 0.0 16.28999089631971 0.0 0.0 0.0 34.36671206372826" Properties=species:S:1:pos:R:3:initial_magmoms:R:1 pbc="T T T"
Si      -1.74891069      -1.23742098      -1.08915045       0.00000000
Si       0.34544574      -1.60345728       1.78614212       0.00000000
Si       1.18169289       1.69748383      -1.28961159       0.00000000
Si       0.73516770       1.93983179       1.39295235       0.00000000
Si      -1.58159610       1.92178247       1.83538965       0.00000000
Si      -1.13261112      -0.05106915       3.07527258       0.00000000
Si       2.45469123       0.16689105      -2.59544428       0.00000000
Si      -0.28312020      -2.55593358      -2.58348466       0.00000000
Si      -0.28722528       2.88565688      -2.63733732       0.00000000
Si      -2.98273158       0.15482016      -2.61915732       0.00000000
