10
Lattice="16.28999089631971 0.0 0.0 0.0 16.28999089631971 0.0 0.0 0.0 34.36671206372826" Properties=species:S:1:pos:R:3:initial_magmoms:R:1 pbc="T T T"
Si       0.74999160       1.67151690       1.43752600       0.00000000
Si      -1.44332658      -1.17636606       1.40315927       0.00000000
Si       1.92554316      -1.37086866      -0.25465748       0.00000000
Si      -1.53112968       0.96071904      -1.63132000       0.00000000
Si       2.19962241      -1.17450900      -2.58936137       0.00000000
Si      -0.62670888       3.51626166       0.83418367       0.00000000
Si      -0.80487261       3.25153287      -1.51471368       0.00000000
Si       1.15012287      -3.52683387       0.34621045       0.00000000
Si      -0.25555752      -3.06654363       2.21136169       0.00000000
Si       0.04846275       1.19674485       3.63833711       0.00000000
