10
Lattice="16.28999089631971 0.0 0.0 0.0 16.28999089631971 0.0 0.0 0.0 34.36671206372826" Properties=species:S:1:pos:R:3:initial_magmoms:R:1 pbc="T T T"
Si      -0.36347877      -0.91912741       2.10197238       0.00000000
Si      -1.22974839      -0.70810349      -1.85848409       0.00000000
Si      -0.80519841       2.16064044       0.54838993       0.00000000
Si       2.14798311      -0.41289123      -0.93353789       0.00000000
Si      -1.77471405       2.77127109      -1.55780956       0.00000000
Si      -1.16699931       1.18003131      -3.26597357       0.00000000
Si       1.15193106       3.13256700       1.52251493       0.00000000
Si      -3.39081237      -1.21795932      -1.11767483       0.00000000
Si       1.06917786      -2.73208454       2.41659981       0.00000000
Si       3.70949364      -0.21021105       0.81036752       0.00000000
