10
Lattice="16.28999089631971 0.0 0.0 0.0 16.28999089631971 0.0 0.0 0.0 34.36671206372826" Properties=species:S:1:pos:R:3:initial_magmoms:R:1 pbc="T T T"
Si       1.35635427       1.35703845       1.35793265       0.00000000
Si      -1.35861858       1.35767376      -1.35621432       0.00000000
Si       1.35839052      -1.35765747      -1.35669545       0.00000000
Si      -1.35788553      -1.35843939       1.35769209       0.00000000
Si      -2.71559187      -0.00195480      -2.71311597       0.00000000
Si       0.00115659      -2.71381626       2.71507487       0.00000000
Si       2.71464705      -0.00187335      -2.71483430       0.00000000
Si      -0.00216657       2.71420722      -2.71534980       0.00000000
Si      -2.71420722      -2.71538010       0.00041240       0.00000000
Si       2.71502172      -2.71472850      -0.00010310       0.00000000
