10
Lattice="16.28999089631971 0.0 0.0 0.0 16.28999089631971 0.0 0.0 0.0 34.36671206372826" Properties=species:S:1:pos:R:3:initial_magmoms:R:1 pbc="T T T"
Si       1.35788553       1.35720135       1.35697038       0.00000000
Si       1.35751086      -1.35721764      -1.35820759       0.00000000
Si      -1.35913986      -1.35848826       1.35597375       0.00000000
Si      -1.35790182       1.35808101      -1.35803575       0.00000000
Si      -2.71169856       0.00027693       2.71356273       0.00000000
Si       0.00162900      -2.71239903       2.71332217       0.00000000
Si      -2.71490769      -0.00047241      -2.71325343       0.00000000
Si       2.71461447      -2.71404432      -0.00103100       0.00000000
Si      -2.71505430      -2.71379997      -0.00106537       0.00000000
Si       0.00091224       2.71409319      -2.71514360       0.00000000
