10
Lattice="16.28999089631971 0.0 0.0 0.0 16.28999089631971 0.0 0.0 0.0 34.36671206372826" Properties=species:S:1:pos:R:3:initial_magmoms:R:1 pbc="T T T"
Si       1.37502261      -0.70162659      -1.73359539       0.00000000
Si      -0.07521093      -0.77616963       2.20620053       0.00000000
Si      -1.64662578       1.40434461      -0.92563354       0.00000000
Si       2.22685929       1.03803138       0.49673673       0.00000000
Si      -0.91106712      -2.40000244      -0.24067022       0.00000000
Si       2.91028995      -1.39157488       1.06918338       0.00000000
Si      -2.89307305      -1.91779075       0.94336677       0.00000000
Si       0.62268525       1.04907600       3.41301648       0.00000000
Si      -3.66747263      -0.12973356      -0.57282468       0.00000000
Si       1.54287477       2.68892514       2.05483948       0.00000000
