10
Lattice="16.28999089631971 0.0 0.0 0.0 16.28999089631971 0.0 0.0 0.0 34.36671206372826" Properties=species:S:1:pos:R:3:initial_magmoms:R:1 pbc="T T T"
Si       1.37424069      -1.35803214      -1.24060463       0.00000000
Si      -1.33268001      -1.34524449       1.34751266       0.00000000
Si      -1.35257173       1.26957744      -1.44748204       0.00000000
Si       1.38808719       1.36805049       1.34270132       0.00000000
Si       2.29443021       0.28181700      -2.59878163       0.00000000
Si       0.42696090       1.90278603      -2.91768879       0.00000000
Si      -2.68862891      -2.70011637      -0.03382717       0.00000000
Si      -2.68947692       0.00830790       2.70169934       0.00000000
Si      -2.66755985       2.72445363      -0.02214248       0.00000000
Si       0.02632464      -2.70497079       2.70042777       0.00000000
