10
Lattice="16.28999089631971 0.0 0.0 0.0 16.28999089631971 0.0 0.0 0.0 34.36671206372826" Properties=species:S:1:pos:R:3:initial_magmoms:R:1 pbc="T T T"
Si       0.76743819      -1.99585080       0.96714855       0.00000000
Si       0.04054581       1.47093813       1.83827646       0.00000000
Si      -2.19647844      -0.27253170      -0.95883180       0.00000000
Si       1.78792524       0.10687869      -1.66829860       0.00000000
Si       0.69670701      -3.42658521      -0.81627860       0.00000000
Si      -1.70367336      -0.40783644      -3.25703822       0.00000000
Si       1.15603614       1.92614589      -2.96206857       0.00000000
Si       1.77877026      -2.17419372      -2.47378605       0.00000000
Si       2.24699373       2.31880005       1.92659895       0.00000000
Si       2.98753713      -1.65100779       1.66056609       0.00000000
