10
Lattice="16.28999089631971 0.0 0.0 0.0 16.28999089631971 0.0 0.0 0.0 34.36671206372826" Properties=species:S:1:pos:R:3:initial_magmoms:R:1 pbc="T T T"
Si       0.93781271       1.67221737       1.24685938       0.00000000
Si       1.42209324      -1.29537917      -1.35776082       0.00000000
Si      -1.31147532       1.42061832      -1.36092256       0.00000000
Si      -1.29857364      -1.21365713       1.61757331       0.00000000
Si       2.36948543      -0.00581553       2.43656688       0.00000000
Si       0.78829332      -1.95871449       2.78147140       0.00000000
Si       2.57025968       2.67256998      -0.02474405       0.00000000
Si       0.05270535      -2.64449321      -2.72246372       0.00000000
Si      -2.65689900       0.07325613      -2.72297922       0.00000000
Si      -2.81271285      -2.64345140       0.26857600       0.00000000
