10
Lattice="16.28999089631971 0.0 0.0 0.0 16.28999089631971 0.0 0.0 0.0 34.36671206372826" Properties=species:S:1:pos:R:3:initial_magmoms:R:1 pbc="T T T"
Si       1.78968456       0.78522687       1.34660336       0.00000000
Si      -0.77455692      -1.88613602       1.22673907       0.00000000
Si       0.89766045       0.76352859      -2.18338717       0.00000000
Si      -2.09807055       1.42750899       0.02584378       0.00000000
Si      -2.03748804       1.28643759      -2.30277720       0.00000000
Si       0.51104988       2.15526474       2.74838108       0.00000000
Si      -2.18600397      -0.57391299       2.73502961       0.00000000
Si      -0.96114258       3.36536739       1.31256998       0.00000000
Si       2.66774814       2.64409506       0.21879858       0.00000000
Si       3.01488804      -0.38853279      -2.46852794       0.00000000
