10
Lattice="16.28999089631971 0.0 0.0 0.0 16.28999089631971 0.0 0.0 0.0 34.36671206372826" Properties=species:S:1:pos:R:3:initial_magmoms:R:1 pbc="T T T"
Si       1.34991972       1.36373364      -1.38625084       0.00000000
Si      -1.36414089      -1.35159759      -1.38480744       0.00000000
Si      -1.56584367       1.25076249       1.31102206       0.00000000
Si       1.47970215      -1.36798533       1.45250990       0.00000000
Si       2.69423568      -2.70574619      -0.04034654       0.00000000
Si       2.70449838       2.70612738      -0.01450276       0.00000000
Si      -2.71401011      -2.71718666      -0.02199471       0.00000000
Si       0.00457749      -2.69609111       2.73916595       0.00000000
Si       2.70630657       0.00504990      -2.74518013       0.00000000
Si      -0.00912240      -2.70990666      -2.74562689       0.00000000
