10
Lattice="16.28999089631971 0.0 0.0 0.0 16.28999089631971 0.0 0.0 0.0 34.36671206372826" Properties=species:S:1:pos:R:3:initial_magmoms:R:1 pbc="T T T"
Si      -1.34995230       1.30337919      -1.39824483       0.00000000
Si      -1.92363723      -0.83654037       1.14784882       0.00000000
Si       1.33990137      -1.42480485      -1.37985863       0.00000000
Si       1.75770729       0.57119256       1.72895588       0.00000000
Si      -0.47004795      -1.21604850       2.91687632       0.00000000
Si       2.48323131       2.39606352       0.08962844       0.00000000
Si      -2.80631088       2.51209719      -0.04835399       0.00000000
Si      -2.64052755      -2.75087601       0.04398942       0.00000000
Si      -0.01264104       2.65961943      -2.74153725       0.00000000
Si       2.70752490      -0.05815530      -2.74669226       0.00000000
