10
Lattice="16.28999089631971 0.0 0.0 0.0 16.28999089631971 0.0 0.0 0.0 34.36671206372826" Properties=species:S:1:pos:R:3:initial_magmoms:R:1 pbc="T T T"
Si      -1.08206325      -1.25239149       1.65750745       0.00000000
Si      -1.78800669       0.27196155      -1.50962740       0.00000000
Si       0.00915498       2.28107241       0.80548745       0.00000000
Si       1.47036798      -1.66066776      -1.07636602       0.00000000
Si       2.64535853       0.71203590      -1.73878477       0.00000000
Si      -1.01133207       0.17834292       3.44093460       0.00000000
Si      -0.54661095       1.11519711      -3.38117086       0.00000000
Si       0.06325407      -3.58617834      -0.54003882       0.00000000
Si      -1.77877026       2.17419372       2.47378605       0.00000000
Si      -0.07943004      -3.36544884       1.80803373       0.00000000
