10
Lattice="16.28999089631971 0.0 0.0 0.0 16.28999089631971 0.0 0.0 0.0 34.36671206372826" Properties=species:S:1:pos:R:3:initial_magmoms:R:1 pbc="T T T"
Si      -1.37424069       1.35803214       1.24060463       0.00000000
Si      -0.69789618      -1.82524563      -1.20681595       0.00000000
Si       1.40201514      -1.35156501       1.22640086       0.00000000
Si       0.92018952       1.63984914      -1.35817700       0.00000000
Si       1.60417404      -0.01104462      -2.91627975       0.00000000
Si      -0.62268525      -1.04907600      -3.41301648       0.00000000
Si       0.01086543      -2.70876636       2.57969744       0.00000000
Si      -2.65908186      -2.62123693      -0.23337416       0.00000000
Si      -2.70692070       0.01278765       2.58811729       0.00000000
Si       2.71901277       0.01477503       2.58828913       0.00000000
