10
Lattice="16.28999089631971 0.0 0.0 0.0 16.28999089631971 0.0 0.0 0.0 34.36671206372826" Properties=species:S:1:pos:R:3:initial_magmoms:R:1 pbc="T T T"
Si       0.63188910      -1.81926720       1.29376997       0.00000000
Si      -2.23891389      -0.14304249      -0.65307099       0.00000000
Si      -0.03668508       1.86398555       1.45020733       0.00000000
Si       1.30021893       0.49555809      -1.92230311       0.00000000
Si       0.53939448       3.47505515      -0.17626696       0.00000000
Si      -0.42969762       1.78509634      -3.02348192       0.00000000
Si       2.83675689      -1.17056682       1.87374292       0.00000000
Si      -2.10588975       0.17299980      -2.99396089       0.00000000
Si      -2.85970950      -2.33398233      -0.29496965       0.00000000
Si      -1.15603614      -1.92614589       2.96206857       0.00000000
