10
Lattice="16.28999089631971 0.0 0.0 0.0 16.28999089631971 0.0 0.0 0.0 34.36671206372826" Properties=species:S:1:pos:R:3:initial_magmoms:R:1 pbc="T T T"
Si      -0.14175721      -2.30513274       0.33565986       0.00000000
Si       1.77893479       0.56917260       1.42463848       0.00000000
Si       0.91305613       0.14343345      -2.16658184       0.00000000
Si      -1.99570975       1.13669991       0.76400680       0.00000000
Si      -0.28624299       2.17145700      -2.63424432       0.00000000
Si      -2.41141426      -0.21422979       2.66706455       0.00000000
Si      -1.94117083      -2.40699411       1.86930961       0.00000000
Si      -0.85418570      -3.15286434      -1.71424692       0.00000000
Si      -1.20476930       3.34842579       1.22221843       0.00000000
Si       0.52844923      -2.01430737      -3.21146794       0.00000000
