10
Lattice="16.28999089631971 0.0 0.0 0.0 16.28999089631971 0.0 0.0 0.0 34.36671206372826" Properties=species:S:1:pos:R:3:initial_magmoms:R:1 pbc="T T T"
Si       1.45445265      -1.10778516       1.53872228       0.00000000
Si       1.79955630       1.06284105      -1.18139560       0.00000000
Si      -0.85875993      -1.92215484      -1.35405406       0.00000000
Si      -1.26200259       1.60233327       1.50594329       0.00000000
Si      -2.63829256      -2.55536343       0.11615268       0.00000000
Si       2.80855890      -2.43846639       0.09974600       0.00000000
Si       0.10236636      -2.45689038       2.90633604       0.00000000
Si       1.00870938      -3.54312387      -1.03514691       0.00000000
Si       3.54516012      -0.72088137      -1.39257917       0.00000000
Si      -2.61643138       0.25480818       2.90571744       0.00000000
