10
Lattice="16.28999089631971 0.0 0.0 0.0 16.28999089631971 0.0 0.0 0.0 34.36671206372826" Properties=species:S:1:pos:R:3:initial_magmoms:R:1 pbc="T T T"
Si       1.35751347      -1.35731538      -1.35707348       0.00000000
Si      -1.35756267       1.35775521      -1.35727968       0.00000000
Si       1.35771384       1.35736425       1.35765772       0.00000000
Si      -1.35754638      -1.35887922       1.35807012       0.00000000
Si       0.00079184      -2.71305063       2.71098523       0.00000000
Si      -0.00163943       2.71272483      -2.71449064       0.00000000
Si       2.71434178       0.00091224      -2.71421570       0.00000000
Si      -0.00058012      -2.71526607      -2.71376893       0.00000000
Si       2.71466758      -2.71516833      -0.00027493       0.00000000
Si      -2.71517127      -2.71511946       0.00010310       0.00000000
