10
Lattice="16.28999089631971 0.0 0.0 0.0 16.28999089631971 0.0 0.0 0.0 34.36671206372826" Properties=species:S:1:pos:R:3:initial_magmoms:R:1 pbc="T T T"
Si      -1.35592324      -1.35496962       1.35721095       0.00000000
Si       1.35982568      -1.35654975      -1.35889492       0.00000000
Si       1.35830257       1.36029645       1.35693602       0.00000000
Si      -1.35577663       1.36374993      -1.35810449       0.00000000
Si       0.00163943      -2.71272483       2.71449064       0.00000000
Si       2.71598121      -2.71181259       0.00027493       0.00000000
Si      -2.71377619       0.00296478       2.71466247       0.00000000
Si      -2.71190284       2.71710684       0.00017183       0.00000000
Si      -2.71496536      -2.71487511       0.00054987       0.00000000
Si       2.71560654       2.71510317       0.00030930       0.00000000
