10
Lattice="16.28999089631971 0.0 0.0 0.0 16.28999089631971 0.0 0.0 0.0 34.36671206372826" Properties=species:S:1:pos:R:3:initial_magmoms:R:1 pbc="T T T"
Si       1.44912582      -1.24652709      -1.38614774       0.00000000
Si      -1.28857647       1.46240217      -1.35968536       0.00000000
Si       1.19456199       1.41918480       1.50894007       0.00000000
Si      -0.88324380      -1.94144220       1.09939173       0.00000000
Si       2.08725399      -0.65208870       2.46911217       0.00000000
Si      -1.08962670      -0.65217015       3.28635304       0.00000000
Si       0.08741214      -2.60801271      -2.73885665       0.00000000
Si      -2.62360889       0.10388133      -2.73621041       0.00000000
Si       2.69560404      -2.71551042      -0.04020908       0.00000000
Si       2.68679115       2.77161318       0.15540636       0.00000000
