10
Lattice="16.28999089631971 0.0 0.0 0.0 16.28999089631971 0.0 0.0 0.0 34.36671206372826" Properties=species:S:1:pos:R:3:initial_magmoms:R:1 pbc="T T T"
Si      -0.87289639      -1.93723938       1.07580791       0.00000000
Si       1.50236154       0.73638945      -1.74555093       0.00000000
Si       1.91179440       0.89371827       1.24418427       0.00000000
Si      -2.14170364       1.02506454      -0.65127984       0.00000000
Si      -2.18050514      -0.56304756       2.60742658       0.00000000
Si       0.53936190       2.17889578       2.61723829       0.00000000
Si       0.36170316       2.77963830      -2.25105118       0.00000000
Si      -1.62030277       3.26185000      -1.06701419       0.00000000
Si      -0.76362633       3.60747981       1.16926136       0.00000000
Si       3.55949532       1.50058593      -0.32881680       0.00000000
