10
Lattice="16.28999089631971 0.0 0.0 0.0 16.28999089631971 0.0 0.0 0.0 34.36671206372826" Properties=species:S:1:pos:R:3:initial_magmoms:R:1 pbc="T T T"
Si       1.36225125       1.34529336       1.36391246       0.00000000
Si       1.35513252      -1.35886293      -1.35827632       0.00000000
Si      -1.36026713       1.35752715      -1.35927296       0.00000000
Si      -1.37929548      -1.35615879       1.37882763       0.00000000
Si       0.03435561       2.69417052       2.72366655       0.00000000
Si       2.71352304       2.71202306      -0.00158087       0.00000000
Si       2.71254564       0.00030951      -2.71617461       0.00000000
Si      -2.71432790      -2.71467963       0.00230257       0.00000000
Si       2.71581993      -2.71474479      -0.00244004       0.00000000
Si      -0.00184077      -2.71456560      -2.71655264       0.00000000
