10
Lattice="16.28999089631971 0.0 0.0 0.0 16.28999089631971 0.0 0.0 0.0 34.529650657227435" Properties=species:S:1:pos:R:3:initial_magmoms:R:1 pbc="T T T"
Si       1.35812988      -1.35819125       1.36036541       0.00000000
Si      -1.35782037       1.35781711       1.36202283       0.00000000
Si       1.36155078       1.36900834      -1.36269616       0.00000000
Si      -1.35514881      -1.37087342      -1.37305161       0.00000000
Si       2.71412577       2.71360123       0.00276237       0.00000000
Si      -2.71584925      -2.71203480       0.00296955       0.00000000
Si      -2.71385536       2.71553974       0.00452339       0.00000000
Si       2.71542897      -2.71653084      -0.00186460       0.00000000
Si      -2.71403617      -0.00079984       2.71800297       0.00000000
Si       0.00115659       2.71438315       2.71800297       0.00000000
