10
Lattice="16.28999089631971 0.0 0.0 0.0 16.28999089631971 0.0 0.0 0.0 34.529650657227435" Properties=species:S:1:pos:R:3:initial_magmoms:R:1 pbc="T T T"
Si       1.33657821      -1.65838783       1.04728489       0.00000000
Si      -1.36179513      -1.36596604      -1.39682874       0.00000000
Si       1.43097876       1.33117645      -1.43370643       0.00000000
Si      -1.65064941       1.64050726       2.61178971       0.00000000
Si      -3.13403799       1.48022995       0.53545159       0.00000000
Si      -0.05722677       3.17437366       1.82050779       0.00000000
Si       3.25596375       2.13173221      -0.09329917       0.00000000
Si      -2.66869459       0.01328775      -2.84148107       0.00000000
Si       0.06770124      -2.68860001      -2.82822168       0.00000000
Si      -2.31844167      -3.14266747      -0.02044156       0.00000000
