10
Lattice="16.28999089631971 0.0 0.0 0.0 16.28999089631971 0.0 0.0 0.0 34.529650657227435" Properties=species:S:1:pos:R:3:initial_magmoms:R:1 pbc="T T T"
Si       1.05785631       1.85774418       0.99524868       0.00000000
Si       0.13774824      -1.47434274       1.83545914       0.00000000
Si      -2.30032719       0.51152229      -0.22130065       0.00000000
Si       1.01286333      -0.53111916      -2.13510761       0.00000000
Si       2.22035958      -0.80756046       2.66537975       0.00000000
Si      -0.23480406       3.68650845       0.10327824       0.00000000
Si      -2.46718566       2.78961363       0.33552480       0.00000000
Si       0.10287135      -3.64215892       0.96434462       0.00000000
Si      -0.81212166      -1.33167492      -3.47551487       0.00000000
Si       3.14318808       2.38630581       0.07541280       0.00000000
