10
Lattice="16.28999089631971 0.0 0.0 0.0 16.28999089631971 0.0 0.0 0.0 34.529650657227435" Properties=species:S:1:pos:R:3:initial_magmoms:R:1 pbc="T T T"
Si      -1.62680085       1.05805179       1.25974595       0.00000000
Si      -1.34622189      -1.34281728      -1.35059351       0.00000000
Si       1.36634004       1.38295584      -1.34285886       0.00000000
Si       1.32729291      -1.39724217       1.38643531       0.00000000
Si       0.22942836       1.95659190       2.75146222       0.00000000
Si       2.13890958       0.37538676       2.75857533       0.00000000
Si      -2.70210375      -2.67682167       0.04958461       0.00000000
Si       0.00327429      -2.69218314      -2.70515793       0.00000000
Si      -2.71002069       0.01975977      -2.70198120       0.00000000
Si       2.73292443      -2.68918578       0.01118761       0.00000000
