10
Lattice="16.28999089631971 0.0 0.0 0.0 16.28999089631971 0.0 0.0 0.0 34.529650657227435" Properties=species:S:1:pos:R:3:initial_magmoms:R:1 pbc="T T T"
Si      -0.20197971       1.73669319       1.54257848       0.00000000
Si       1.29266037      -1.82876427       0.89197043       0.00000000
Si      -2.23238160      -0.89689482       0.23224656       0.00000000
Si       0.99194697       1.04008392      -2.26566429       0.00000000
Si       3.37799214      -1.30020264      -0.02786544       0.00000000
Si       0.23480406      -3.68650845      -0.10327824       0.00000000
Si       1.89234414       1.83992292       2.58723911       0.00000000
Si       2.90142819      -0.54112122      -2.25855118       0.00000000
Si      -0.38107197       3.74011884       0.23238468       0.00000000
Si      -2.06552313      -3.17498616      -0.32457890       0.00000000
