10
Lattice="16.28999089631971 0.0 0.0 0.0 16.28999089631971 0.0 0.0 0.0 34.529650657227435" Properties=species:S:1:pos:R:3:initial_magmoms:R:1 pbc="T T T"
Si      -0.51579027       2.26602045       0.32516590       0.00000000
Si      -2.04090894      -0.77721219      -0.98913693       0.00000000
Si       0.67748481      -0.80609436       2.15751737       0.00000000
Si       1.81379376      -0.43324884      -1.61529796       0.00000000
Si       1.00603782      -2.99719710       1.43481138       0.00000000
Si      -1.48292757      -3.06615267      -1.39413542       0.00000000
Si       1.46535066       3.48522921       0.17105998       0.00000000
Si      -1.62792486       2.39505354       2.44352662       0.00000000
Si      -1.87155810       2.97665541      -1.51426415       0.00000000
Si      -3.74323023      -0.76934412       0.67736854       0.00000000
