10
Lattice="16.28999089631971 0.0 0.0 0.0 16.28999089631971 0.0 0.0 0.0 34.529650657227435" Properties=species:S:1:pos:R:3:initial_magmoms:R:1 pbc="T T T"
Si      -0.46416726       2.29985478      -0.46539089       0.00000000
Si      -0.24278616      -1.64426373      -1.73338943       0.00000000
Si       1.81644903       0.22573053       1.63770772       0.00000000
Si      -1.19347056      -1.84355559       1.77023259       0.00000000
Si       3.23861490      -0.47662911      -0.13345717       0.00000000
Si       0.47224710      -0.97192656       3.26188813       0.00000000
Si       0.36553131      -3.54581172      -0.31401282       0.00000000
Si      -2.96776107      -0.23381037       2.06041272       0.00000000
Si      -1.04391207       3.18767607       1.74702865       0.00000000
Si      -2.46883095      -1.47962070      -2.46852611       0.00000000
