10
Lattice="16.28999089631971 0.0 0.0 0.0 16.28999089631971 0.0 0.0 0.0 34.529650657227435" Properties=species:S:1:pos:R:3:initial_magmoms:R:1 pbc="T T T"
Si       1.62578761       1.63032438       0.40195989       0.00000000
Si       0.68140744      -1.34010793       1.85579711       0.00000000
Si       0.24257765      -0.80393594      -2.28634757       0.00000000
Si      -1.95609735       1.19246547       0.83206146       0.00000000
Si       1.08808729       1.97573754       2.73485345       0.00000000
Si      -1.28252214      -2.43586229       2.46821534       0.00000000
Si      -1.95694443      -0.94879965      -3.00370146       0.00000000
Si       2.16376486      -2.95570877       0.97539412       0.00000000
Si       3.72991804       0.61522932      -0.36183641       0.00000000
Si      -2.63630259       2.57354796      -1.01230633       0.00000000
