10
Lattice="16.28999089631971 0.0 0.0 0.0 16.28999089631971 0.0 0.0 0.0 34.529650657227435" Properties=species:S:1:pos:R:3:initial_magmoms:R:1 pbc="T T T"
Si       0.92230722       1.70170227       1.25874459       0.00000000
Si       0.17909226      -2.00342565       1.31019380       0.00000000
Si      -2.28721374       0.73205631      -0.17627397       0.00000000
Si       2.73712725       0.30682215       1.81684764       0.00000000
Si      -0.46670850       1.31742117       3.13412002       0.00000000
Si      -2.23423866       1.16765091      -2.60091286       0.00000000
Si       0.38107197      -3.74011884      -0.23238468       0.00000000
Si       2.27341611      -1.90019592       2.35485443       0.00000000
Si       1.37301894      -2.70003492      -2.49804897       0.00000000
Si      -2.22519771      -0.37043460       3.38708439       0.00000000
