10
Lattice="16.28999089631971 0.0 0.0 0.0 16.28999089631971 0.0 0.0 0.0 34.529650657227435" Properties=species:S:1:pos:R:3:initial_magmoms:R:1 pbc="T T T"
Si       1.35716877      -1.35790182       1.36309325       0.00000000
Si      -1.36036161       1.35736425       1.36295513       0.00000000
Si      -1.35672894      -1.36770840      -1.38163568       0.00000000
Si       1.36879983       1.35439947      -1.38977433       0.00000000
Si       2.71666701      -2.71191033       0.00856336       0.00000000
Si      -2.71663117      -2.71208952       0.00403997       0.00000000
Si       2.71397916       2.71511946       0.00034530       0.00000000
Si      -0.00073305      -2.71363707       2.72024740       0.00000000
Si       2.71461447       0.00058644       2.72010928       0.00000000
Si      -2.71580690       0.00123804       2.72035099       0.00000000
