10
Lattice="16.28999089631971 0.0 0.0 0.0 16.28999089631971 0.0 0.0 0.0 34.529650657227435" Properties=species:S:1:pos:R:3:initial_magmoms:R:1 pbc="T T T"
Si       1.37438730       1.82174328       0.17561790       0.00000000
Si      -2.27733290       0.26823114       0.12033590       0.00000000
Si       0.69406803      -2.05030175       0.77308478       0.00000000
Si       0.53770032      -0.34541316      -2.33289356       0.00000000
Si       2.72916144      -1.61956809      -0.40734652       0.00000000
Si       3.35823237       0.68131296      -0.14336719       0.00000000
Si      -0.40667985      -3.31584546      -0.87905634       0.00000000
Si      -1.08808729      -1.97573754      -2.73485345       0.00000000
Si       0.73917504       3.09347100      -1.65331513       0.00000000
Si      -3.04418465      -0.78327207      -1.90279199       0.00000000
