10
Lattice="16.28999089631971 0.0 0.0 0.0 16.28999089631971 0.0 0.0 0.0 34.529650657227435" Properties=species:S:1:pos:R:3:initial_magmoms:R:1 pbc="T T T"
Si       1.37044512      -1.31171967      -1.49271763       0.00000000
Si       1.66014648       1.19988882       1.35463348       0.00000000
Si      -1.33714836       1.41845175      -1.50162629       0.00000000
Si      -2.01186387      -0.92580957       1.10315390       0.00000000
Si      -0.06827139       2.44866393       2.37388028       0.00000000
Si       2.64523536       2.75840453      -0.19412580       0.00000000
Si      -2.76664473       2.74108572      -0.07023335       0.00000000
Si       2.73170268      -2.79707445      -0.01923303       0.00000000
Si       0.01845657      -2.65562838      -2.88671494       0.00000000
Si      -2.69845479       0.05996349      -2.88547187       0.00000000
