10
Lattice="16.28999089631971 0.0 0.0 0.0 16.28999089631971 0.0 0.0 0.0 34.529650657227435" Properties=species:S:1:pos:R:3:initial_magmoms:R:1 pbc="T T T"
Si      -1.01957481       0.76974648      -2.00330786       0.00000000
Si       0.44893611       1.82436108       1.54406325       0.00000000
Si       1.29551112      -2.05535395      -0.16943709       0.00000000
Si      -1.02206718      -3.10446253      -0.16539712       0.00000000
Si      -2.08081944      -2.19896659       1.75997728       0.00000000
Si       0.73691073       1.62857157      -3.36923255       0.00000000
Si      -3.67328097      -0.63934666       1.15270397       0.00000000
Si      -1.55579274       2.19525180       2.85373910       0.00000000
Si       1.90659789       1.05123768       3.30953075       0.00000000
Si       2.76016131      -2.34951877       1.71187745       0.00000000
