10
Lattice="16.28999089631971 0.0 0.0 0.0 16.28999089631971 0.0 0.0 0.0 34.529650657227435" Properties=species:S:1:pos:R:3:initial_magmoms:R:1 pbc="T T T"
Si       2.02108401       0.81296385      -0.75461141       0.00000000
Si      -1.54375443       1.59703902       0.76137922       0.00000000
Si       0.33037749      -1.32858701       1.91049211       0.00000000
Si      -1.25323857      -0.35564181      -2.00641553       0.00000000
Si      -1.15823529       1.96493238      -2.53920834       0.00000000
Si       2.65412970      -1.14442856      -1.90866204       0.00000000
Si       1.16445807       2.47798593      -2.17526562       0.00000000
Si      -3.12188076       0.19895954       1.79865051       0.00000000
Si      -0.14876028       0.18396949       3.71901810       0.00000000
Si       2.42043336      -2.31380621       1.67303157       0.00000000
