10
Lattice="16.28999089631971 0.0 0.0 0.0 16.28999089631971 0.0 0.0 0.0 34.529650657227435" Properties=species:S:1:pos:R:3:initial_magmoms:R:1 pbc="T T T"
Si       1.54375443      -1.59703902      -0.76137922       0.00000000
Si      -1.28047545       0.89596629      -1.75258793       0.00000000
Si      -1.57812633      -1.39807948       1.03727129       0.00000000
Si       0.64198890       1.86533532       1.31105704       0.00000000
Si       0.38551914       0.36789336      -3.30058756       0.00000000
Si       0.29051586      -1.95268083      -2.76779475       0.00000000
Si      -3.48900849      -0.18254574       0.51991324       0.00000000
Si      -1.35280305       2.01116340       2.59293651       0.00000000
Si       1.39499415      -1.41306953       2.95763888       0.00000000
Si      -1.60902846       3.08706903      -1.02988194       0.00000000
