10
Lattice="16.28999089631971 0.0 0.0 0.0 16.28999089631971 0.0 0.0 0.0 34.529650657227435" Properties=species:S:1:pos:R:3:initial_magmoms:R:1 pbc="T T T"
Si      -0.64198890      -1.86533532      -1.31105704       0.00000000
Si      -1.99479195       0.14582808       1.28187947       0.00000000
Si       1.63781289      -0.93144591       1.46208981       0.00000000
Si      -0.41337504       2.15620956      -1.07656605       0.00000000
Si      -2.25101736       1.22173371      -2.34093897       0.00000000
Si      -3.50192646       0.25299999      -0.52716447       0.00000000
Si      -1.60910991       2.15813178       2.41514324       0.00000000
Si      -1.92246435      -0.96936903      -3.06364497       0.00000000
Si       0.75300525      -3.27840485       1.64658184       0.00000000
Si       1.27840662       0.12424383       3.62716918       0.00000000
