10
Lattice="16.28999089631971 0.0 0.0 0.0 16.28999089631971 0.0 0.0 0.0 34.529650657227435" Properties=species:S:1:pos:R:3:initial_magmoms:R:1 pbc="T T T"
Si       1.39598784       0.68252819      -1.76626168       0.00000000
Si      -0.48740494      -2.32050791       0.44387891       0.00000000
Si       1.44521622       0.79383776       1.82758637       0.00000000
Si      -2.14232138       0.97322324      -0.87346253       0.00000000
Si      -2.17793132      -1.07163113       2.01902374       0.00000000
Si      -0.36930896      -0.01520509       3.17328154       0.00000000
Si       0.72130491       3.01297559      -1.84557633       0.00000000
Si       0.32439906      -0.53063861      -3.56066504       0.00000000
Si      -1.45704113       3.28834175      -0.81462397       0.00000000
Si      -2.04241481       0.07006492      -3.09420372       0.00000000
