10
Lattice="16.28999089631971 0.0 0.0 0.0 16.28999089631971 0.0 0.0 0.0 34.529650657227435" Properties=species:S:1:pos:R:3:initial_magmoms:R:1 pbc="T T T"
Si      -0.26570619       1.72552802      -1.68169852       0.00000000
Si      -2.18869182      -1.04447407      -0.20213669       0.00000000
Si      -0.85146201       1.69759067       1.58912447       0.00000000
Si       1.94662242      -1.23886820       1.38481241       0.00000000
Si       1.60708995      -1.42462307      -2.36821741       0.00000000
Si      -2.11818870       2.88584843      -0.47999694       0.00000000
Si      -3.23884296       0.90358349      -1.39817540       0.00000000
Si      -1.89192060       0.25770780       3.13049238       0.00000000
Si      -1.83721878       1.02610058      -3.30027679       0.00000000
Si      -3.55146435      -0.74108749       1.75010179       0.00000000
