10
Lattice="16.28999089631971 0.0 0.0 0.0 16.28999089631971 0.0 0.0 0.0 34.529650657227435" Properties=species:S:1:pos:R:3:initial_magmoms:R:1 pbc="T T T"
Si      -0.81161667      -1.77262893      -1.37214002       0.00000000
Si       0.47656395      -0.75908142       2.23068574       0.00000000
Si       1.85494230       0.97318089      -1.22238485       0.00000000
Si      -1.90948122       1.58120514      -0.00711311       0.00000000
Si      -2.13890958      -0.37538676      -2.75857533       0.00000000
Si       0.58285620       2.35185246      -2.73153860       0.00000000
Si      -2.90142819       0.54112122       2.25855118       0.00000000
Si      -1.60876782      -1.28764305       3.15052162       0.00000000
Si      -0.77317227       3.57762609      -1.23236392       0.00000000
Si       2.87772624       2.75323806      -0.10845769       0.00000000
