10
Lattice="16.28999089631971 0.0 0.0 0.0 16.28999089631971 0.0 0.0 0.0 34.529650657227435" Properties=species:S:1:pos:R:3:initial_magmoms:R:1 pbc="T T T"
Si       1.34821579       1.33214733      -1.37926695       0.00000000
Si      -1.35760428       1.35404109       1.35635997       0.00000000
Si       1.35603499      -1.35772263       1.35749944       0.00000000
Si      -1.34631842      -1.34708526      -1.37937744       0.00000000
Si      -0.00049685       2.71417464       2.71337599       0.00000000
Si      -2.71345855       2.71435383      -0.00642252       0.00000000
Si       2.71501195      -0.00115659       2.71347958       0.00000000
Si      -2.71542964      -0.00118917       2.71365223       0.00000000
Si       2.71411600       2.71526607      -0.00735482       0.00000000
Si       2.71385536      -2.71553974      -0.00452339       0.00000000
