10
Lattice="16.28999089631971 0.0 0.0 0.0 16.28999089631971 0.0 0.0 0.0 34.529650657227435" Properties=species:S:1:pos:R:3:initial_magmoms:R:1 pbc="T T T"
Si      -1.42216587       0.70235964       1.77116489       0.00000000
Si       0.16775442       2.27092374      -0.87867651       0.00000000
Si       0.08109162      -1.00334997      -2.33917796       0.00000000
Si       1.27523007      -1.72568115       1.65718245       0.00000000
Si      -3.23861490       0.47662911       0.13345717       0.00000000
Si       2.13459273       0.05589099      -2.98837029       0.00000000
Si       2.40837876      -2.93391045      -0.35506860       0.00000000
Si       1.30311855       2.25074043      -2.90884846       0.00000000
Si      -0.10832850       2.13770412       3.33418635       0.00000000
Si       1.83443319       3.51860742       0.12095743       0.00000000
