10
Lattice="16.28999089631971 0.0 0.0 0.0 16.28999089631971 0.0 0.0 0.0 34.529650657227435" Properties=species:S:1:pos:R:3:initial_magmoms:R:1 pbc="T T T"
Si      -1.35728280      -1.35552348       1.35767209       0.00000000
Si       1.35778779      -1.35125550      -1.36160848       0.00000000
Si       1.35842310       1.35943308       1.35743039       0.00000000
Si      -1.35676152       1.36021500      -1.36447444       0.00000000
Si       0.00066789      -2.71282257       2.71506795       0.00000000
Si      -2.71368594       0.00146610       2.71517154       0.00000000
Si       2.71451673      -2.71446786      -0.00041436       0.00000000
Si      -2.71660185      -2.71296918       0.00096683       0.00000000
Si       2.71534752       0.00232947       2.71465359       0.00000000
Si       0.00138465       2.71645524       2.71482624       0.00000000
