10
Lattice="16.28999089631971 0.0 0.0 0.0 16.28999089631971 0.0 0.0 0.0 34.529650657227435" Properties=species:S:1:pos:R:3:initial_magmoms:R:1 pbc="T T T"
Si      -1.13536413       0.02018331       2.03017194       0.00000000
Si       0.83147418      -2.19484944      -0.07952183       0.00000000
Si      -1.55574387      -0.14172300      -1.76757380       0.00000000
Si       1.47817089       1.91425419      -0.15438215       0.00000000
Si       0.53131464       1.26786699       3.02980589       0.00000000
Si       1.40470299      -2.12716449      -2.34977857       0.00000000
Si       3.39771933       0.66889998       0.21729521       0.00000000
Si      -3.06507753       1.44656829      -0.82546629       0.00000000
Si      -1.22202693      -3.25409040       0.56967049       0.00000000
Si       3.19846005      -1.20006801      -1.14531462       0.00000000
