10
Lattice="16.28999089631971 0.0 0.0 0.0 16.28999089631971 0.0 0.0 0.0 34.529650657227435" Properties=species:S:1:pos:R:3:initial_magmoms:R:1 pbc="T T T"
Si       1.35829115      -1.33724760       1.39230190       0.00000000
Si      -1.34673382       1.40208030       1.39049945       0.00000000
Si      -1.80862236      -1.05642605      -1.15425781       0.00000000
Si       1.81452518       0.80904285      -1.34569517       0.00000000
Si       0.36930896       0.01520509      -3.17328154       0.00000000
Si      -0.11809598      -2.30530283      -2.72940264       0.00000000
Si       2.68186994       2.68144803      -0.07587895       0.00000000
Si       2.77672661      -2.63134718      -0.09060931       0.00000000
Si      -0.00240929      -2.67840899       2.76832306       0.00000000
Si      -2.77854525       2.69340489      -0.04807566       0.00000000
