10
Lattice="16.28999089631971 0.0 0.0 0.0 16.28999089631971 0.0 0.0 0.0 34.529650657227435" Properties=species:S:1:pos:R:3:initial_magmoms:R:1 pbc="T T T"
Si       1.90278603       0.81993109      -1.26079017       0.00000000
Si       1.34210052      -1.29759912       1.55597253       0.00000000
Si      -1.34363178       1.41658492       1.52678115       0.00000000
Si      -1.54642599      -1.29862318      -1.59893922       0.00000000
Si      -2.64924270      -2.67955906       0.04657017       0.00000000
Si       2.56332924      -2.78218606       0.19147047       0.00000000
Si       2.66230728       2.72436241       0.11041207       0.00000000
Si      -2.72456766       2.72577964      -0.02997866       0.00000000
Si       1.15750224       0.91135057      -3.61046515       0.00000000
Si       3.63223017      -1.02546853      -0.99577008       0.00000000
