10
Lattice="16.28999089631971 0.0 0.0 0.0 16.28999089631971 0.0 0.0 0.0 34.529650657227435" Properties=species:S:1:pos:R:3:initial_magmoms:R:1 pbc="T T T"
Si       1.17788103      -0.04015485       2.03300338       0.00000000
Si      -0.54555210      -1.96625906      -1.23295093       0.00000000
Si       1.98814563       0.66033144      -1.37283062       0.00000000
Si      -1.77261264       1.86140943       0.06260229       0.00000000
Si       3.07402304       0.90228681       0.69822446       0.00000000
Si      -1.87825329      -0.58389876      -2.69006847       0.00000000
Si       0.83108322       2.17614852      -2.68727156       0.00000000
Si      -3.32576640       0.71066754      -1.35301059       0.00000000
Si      -0.56887938       3.42578700      -1.21161159       0.00000000
Si      -0.82668492       3.03274188       2.04142862       0.00000000
