10
Lattice="16.28999089631971 0.0 0.0 0.0 16.28999089631971 0.0 0.0 0.0 34.529650657227435" Properties=species:S:1:pos:R:3:initial_magmoms:R:1 pbc="T T T"
Si       1.20373326       1.56437757      -1.27421388       0.00000000
Si      -1.55315376      -1.15074189      -1.41561288       0.00000000
Si       0.94592772       1.17133245       1.97882633       0.00000000
Si       1.77261264      -1.86140943      -0.06260229       0.00000000
Si      -1.11216717       1.24647822       2.96879196       0.00000000
Si      -0.10564065      -2.44530819      -2.75267076       0.00000000
Si       2.60369586       0.31473909      -2.74987386       0.00000000
Si      -3.30963930      -2.00956698      -0.04968820       0.00000000
Si       2.80666926       2.71130760       0.16052844       0.00000000
Si      -2.80557783       0.30431349      -2.76068164       0.00000000
