10
Lattice="16.28999089631971 0.0 0.0 0.0 16.28999089631971 0.0 0.0 0.0 34.529650657227435" Properties=species:S:1:pos:R:3:initial_magmoms:R:1 pbc="T T T"
Si       1.17187002      -2.04393236      -0.12475570       0.00000000
Si       0.40034304       1.01607246      -2.10696593       0.00000000
Si      -2.34792657      -0.51051231      -0.29526321       0.00000000
Si       0.49251186       1.47841524       1.86663943       0.00000000
Si      -1.75558959       2.26149183       1.87886293       0.00000000
Si      -3.14670672       0.32452938       1.74989461       0.00000000
Si       0.76825269      -2.75894675      -2.36818288       0.00000000
Si       0.98603370      -0.68400081      -3.58801253       0.00000000
Si       1.17271710       0.09733275       3.71100722       0.00000000
Si      -2.62327644      -2.88056789      -0.10486661       0.00000000
