10
Lattice="16.28999089631971 0.0 0.0 0.0 16.28999089631971 0.0 0.0 0.0 34.529650657227435" Properties=species:S:1:pos:R:3:initial_magmoms:R:1 pbc="T T T"
Si      -2.24810145       0.78307659       0.01222350       0.00000000
Si       0.68020524      -1.38108249       1.84436779       0.00000000
Si      -0.49251186      -1.47841524      -1.86663943       0.00000000
Si       1.66205243       1.79434350      -0.22389038       0.00000000
Si      -2.42418006       2.32065711       1.74999820       0.00000000
Si      -2.55091626       2.00640672      -1.98259006       0.00000000
Si      -3.63921858      -1.15388586      -0.11674481       0.00000000
Si       2.63630259      -2.57354796       1.01230633       0.00000000
Si      -1.24514244      -2.25150606       2.94103011       0.00000000
Si      -0.09216882      -0.46234278      -3.97360536       0.00000000
