10
Lattice="16.28999089631971 0.0 0.0 0.0 16.28999089631971 0.0 0.0 0.0 34.529650657227435" Properties=species:S:1:pos:R:3:initial_magmoms:R:1 pbc="T T T"
Si      -1.53745020      -0.56740188      -1.63712071       0.00000000
Si       0.47343627      -1.95415559       1.22310997       0.00000000
Si       1.92534768       0.87042357      -1.09666232       0.00000000
Si      -0.60432642       1.53481122       1.72033722       0.00000000
Si       2.69219943       1.92192678       0.92646557       0.00000000
Si       1.47536901       1.46631177       2.98325990       0.00000000
Si       2.59892289      -2.75790419       0.53949156       0.00000000
Si      -0.20717622       3.75300423       0.80226235       0.00000000
Si      -0.90440451      -2.52479429      -2.79117134       0.00000000
Si       1.24514244       2.25150606      -2.94103011       0.00000000
