10
Lattice="16.28999089631971 0.0 0.0 0.0 16.28999089631971 0.0 0.0 0.0 34.529650657227435" Properties=species:S:1:pos:R:3:initial_magmoms:R:1 pbc="T T T"
Si       0.60432642      -1.53481122      -1.72033722       0.00000000
Si       0.39715020       2.21819301      -0.91807486       0.00000000
Si       2.07969543      -0.06849945       1.26292268       0.00000000
Si      -2.21816043      -0.38424852       0.93167955       0.00000000
Si       3.29652585       0.38711556      -0.79387164       0.00000000
Si       1.07776269      -3.48896681      -0.49722725       0.00000000
Si       2.52967410      -0.66438765      -2.81699953       0.00000000
Si       2.76630264       2.64095109      -0.78009430       0.00000000
Si      -3.85597332       0.54719739      -0.53041026       0.00000000
Si       2.15510184       1.80128304       2.81668877       0.00000000
