10
Lattice="16.28999089631971 0.0 0.0 0.0 16.28999089631971 0.0 0.0 0.0 34.529650657227435" Properties=species:S:1:pos:R:3:initial_magmoms:R:1 pbc="T T T"
Si       0.74528379      -0.09141948       2.34967498       0.00000000
Si       2.51033787       0.10803528      -0.27779119       0.00000000
Si      -1.48727700       2.05001505      -0.02779638       0.00000000
Si      -0.71535906      -2.09741765      -1.25456650       0.00000000
Si       2.61024444      -0.79512304      -2.49853239       0.00000000
Si      -1.15750224      -0.91135057       3.61046515       0.00000000
Si       0.87649974      -2.31365960      -3.08315423       0.00000000
Si      -1.24499583      -3.71803679       0.61321241       0.00000000
Si      -3.01444821       1.78336404      -1.90507095       0.00000000
Si      -0.28039977       3.82899708      -1.15905743       0.00000000
