10
Lattice="16.28999089631971 0.0 0.0 0.0 16.28999089631971 0.0 0.0 0.0 34.529650657227435" Properties=species:S:1:pos:R:3:initial_magmoms:R:1 pbc="T T T"
Si      -1.33349940      -1.34254035       1.37305161       0.00000000
Si       1.38145716       1.37077092       1.36901164       0.00000000
Si      -1.42478856       1.24888914      -1.47469314       0.00000000
Si       1.31678586      -1.39934358      -1.44251840       0.00000000
Si       0.49267476       2.01222225      -2.63397744       0.00000000
Si       2.30539338       0.28377180      -2.86392678       0.00000000
Si      -2.68915320      -2.70712107      -0.02614932       0.00000000
Si      -2.69491986       2.72039742      -0.01707492       0.00000000
Si      -2.69394246       0.01101204       2.73172506       0.00000000
Si       0.01956429      -2.70283680       2.73137976       0.00000000
