10
Lattice="16.28999089631971 0.0 0.0 0.0 16.28999089631971 0.0 0.0 0.0 34.529650657227435" Properties=species:S:1:pos:R:3:initial_magmoms:R:1 pbc="T T T"
Si      -1.34309421      -1.34622189       1.38080352       0.00000000
Si       1.37657016       1.36187658       1.38235735       0.00000000
Si       1.26980550      -1.47290922      -1.41752582       0.00000000
Si      -1.37450133       1.39274613      -1.42773625       0.00000000
Si       2.58546735       0.11207520      -2.61397336       0.00000000
Si      -2.70210375      -2.71565703      -0.00621534       0.00000000
Si      -2.69255781       2.73540051       0.01308329       0.00000000
Si       2.73370261      -2.70143586       0.00860479       0.00000000
Si      -2.70088200       0.00503361       2.74241199       0.00000000
Si       0.01363473      -2.70943425       2.74199764       0.00000000
