10
Lattice="16.28999089631971 0.0 0.0 0.0 16.28999089631971 0.0 0.0 0.0 34.529650657227435" Properties=species:S:1:pos:R:3:initial_magmoms:R:1 pbc="T T T"
Si       0.79363251      -1.10941416      -1.99947507       0.00000000
Si       1.45813419       1.94287572       0.23003666       0.00000000
Si      -2.46161448       0.31661244      -0.21442925       0.00000000
Si      -0.77742396      -2.05405497       1.18498921       0.00000000
Si       1.01633310      -1.12695849       2.38945316       0.00000000
Si      -2.65149072      -1.83277161      -1.40874147       0.00000000
Si      -0.60118245      -3.01228164      -1.79685497       0.00000000
Si       0.24817815       3.36774573       1.70959849       0.00000000
Si       1.42866558       2.98260126      -1.89819955       0.00000000
Si       0.37067895      -3.83144058       0.19643929       0.00000000
