10
Lattice="16.28999089631971 0.0 0.0 0.0 16.28999089631971 0.0 0.0 0.0 34.529650657227435" Properties=species:S:1:pos:R:3:initial_magmoms:R:1 pbc="T T T"
Si      -1.20718674       1.58384412       1.34244451       0.00000000
Si      -1.23502635      -1.91984166      -0.83257940       0.00000000
Si       1.39810554      -0.97756290       1.75449746       0.00000000
Si       1.09980306       0.82502334      -2.08113774       0.00000000
Si       2.94760449      -1.59244524       0.18535527       0.00000000
Si      -3.12891804       0.76303989      -1.62044288       0.00000000
Si      -3.44378745      -1.23551505      -0.33583557       0.00000000
Si      -0.57738276      -1.83448206      -3.14834625       0.00000000
Si      -2.62756071       2.83390614      -0.17085281       0.00000000
Si       0.08244369      -2.56254732       2.95094500       0.00000000
