10
Lattice="16.28999089631971 0.0 0.0 0.0 16.28999089631971 0.0 0.0 0.0 34.529650657227435" Properties=species:S:1:pos:R:3:initial_magmoms:R:1 pbc="T T T"
Si       1.35486603       1.35827649       1.36631832       0.00000000
Si      -1.35430173      -1.36262592       1.36393578       0.00000000
Si       1.39843853      -1.26995211      -1.41528830       0.00000000
Si      -1.52024796       1.22354190      -1.36902200       0.00000000
Si      -0.14540454      -2.61242730      -2.63239494       0.00000000
Si       2.71556648       2.69943788      -0.00970284       0.00000000
Si       2.71180349      -0.00397476       2.72409400       0.00000000
Si      -0.00010001       2.71153597       2.72450836       0.00000000
Si      -2.71744893      -0.00140094       2.72423212       0.00000000
Si      -0.00139582      -2.71922454       2.72533707       0.00000000
