10
Lattice="16.28999089631971 0.0 0.0 0.0 16.28999089631971 0.0 0.0 0.0 34.529650657227435" Properties=species:S:1:pos:R:3:initial_magmoms:R:1 pbc="T T T"
Si       1.35692442      -1.35710361       1.35722321       0.00000000
Si      -1.35703845       1.35702216       1.35739586       0.00000000
Si       1.35588186       1.35863487      -1.35718868       0.00000000
Si      -1.35842310      -1.35943308      -1.35743039       0.00000000
Si      -0.00216657      -2.71425609       2.71368676       0.00000000
Si      -0.00091224       2.71389771       2.71417018       0.00000000
Si      -0.00188964       2.71762812      -2.71075174       0.00000000
Si      -2.71430496      -0.00107514       2.71444641       0.00000000
Si       2.71414206      -0.00221544       2.71496436       0.00000000
Si      -2.71456560       2.71492398       0.00031077       0.00000000
