10
Lattice="16.28999089631971 0.0 0.0 0.0 16.28999089631971 0.0 0.0 0.0 34.529650657227435" Properties=species:S:1:pos:R:3:initial_magmoms:R:1 pbc="T T T"
Si      -1.35140211       1.35584928       1.35777568       0.00000000
Si       1.35378045      -1.35464382       1.35894969       0.00000000
Si      -1.35612621      -1.35687555      -1.35677432       0.00000000
Si       1.35819504       1.35818171      -1.35684338       0.00000000
Si      -0.00185706       2.68567433       2.72218106       0.00000000
Si      -2.71365336       0.00102627      -2.71385941       0.00000000
Si       0.00091224      -2.71389771      -2.71417018       0.00000000
Si      -2.71339272      -2.71497285       0.00027624       0.00000000
Si      -2.71492398       2.71406617       0.00051795       0.00000000
Si       0.00091224       2.71538729      -2.71372129       0.00000000
