10
Lattice="16.28999089631971 0.0 0.0 0.0 16.28999089631971 0.0 0.0 0.0 34.529650657227435" Properties=species:S:1:pos:R:3:initial_magmoms:R:1 pbc="T T T"
Si      -1.66983903      -0.38284758      -1.56485011       0.00000000
Si       1.96678848       0.35163594      -1.25166601       0.00000000
Si       0.04131144      -1.90793367       1.38619360       0.00000000
Si      -0.13203045       2.05732926       1.21475379       0.00000000
Si      -0.56791827      -0.69271596       3.31046305       0.00000000
Si       0.94610691       1.11088026       3.12400283       0.00000000
Si      -2.16046125       1.89205092      -2.09774651       0.00000000
Si       3.24606662       1.59018093       0.30472434       0.00000000
Si       2.97485441      -1.74658122      -1.52210238       0.00000000
Si       0.50577192       3.75938732      -0.32958570       0.00000000
