10
Lattice="16.28999089631971 0.0 0.0 0.0 16.28999089631971 0.0 0.0 0.0 34.529650657227435" Properties=species:S:1:pos:R:3:initial_magmoms:R:1 pbc="T T T"
Si       0.28525419       1.96317306      -1.28678268       0.00000000
Si      -1.84199175      -1.25638254      -0.85195055       0.00000000
Si       2.04046911      -1.23497748       0.21201217       0.00000000
Si       0.05155785       0.79379541       2.29491092       0.00000000
Si       2.47635693       1.51506774      -1.88369709       0.00000000
Si       3.55449429       0.56861874       0.02555196       0.00000000
Si      -2.03849802       1.77901461       2.53237146       0.00000000
Si      -3.03963255      -1.92683007       1.02898416       0.00000000
Si       2.06993772      -2.27470302       2.34024838       0.00000000
Si      -0.34779150       3.92056547      -0.13273205       0.00000000
