10
Lattice="16.28999089631971 0.0 0.0 0.0 16.28999089631971 0.0 0.0 0.0 34.529650657227435" Properties=species:S:1:pos:R:3:initial_magmoms:R:1 pbc="T T T"
Si       0.60922971      -1.21521771      -1.92426945       0.00000000
Si       1.51402518       1.80359622      -0.18646022       0.00000000
Si       0.02946861      -1.03972554       2.12823621       0.00000000
Si      -2.04046911       1.23497748      -0.21201217       0.00000000
Si       0.56791827       0.69271596      -3.31046305       0.00000000
Si       0.43588782       2.75004522      -2.09570926       0.00000000
Si      -1.98891126       2.02877289       2.08289875       0.00000000
Si      -1.13972985      -2.77288380      -1.96028389       0.00000000
Si      -1.42866558      -2.98260126       1.89819955       0.00000000
Si      -1.18048743       0.38514447       3.60779804       0.00000000
