10
Lattice="16.28999089631971 0.0 0.0 0.0 16.28999089631971 0.0 0.0 0.0 34.529650657227435" Properties=species:S:1:pos:R:3:initial_magmoms:R:1 pbc="T T T"
Si      -0.47343627       1.95415559      -1.22310997       0.00000000
Si       2.12548662      -0.80374860      -0.68361841       0.00000000
Si      -1.61153712      -1.74001635      -0.43258771       0.00000000
Si       0.23561856       0.06338439       2.41590289       0.00000000
Si       0.80529615      -2.20389039       2.40595834       0.00000000
Si      -0.80311329      -3.38364477       1.09231158       0.00000000
Si      -1.07776269       3.48896681       0.49722725       0.00000000
Si       2.74767895      -2.22641946       1.05892139       0.00000000
Si      -2.01088647       1.38675371      -2.86023068       0.00000000
Si      -3.70159299      -0.75479715      -0.19512716       0.00000000
