10
Lattice="16.28999089631971 0.0 0.0 0.0 16.28999089631971 0.0 0.0 0.0 34.529650657227435" Properties=species:S:1:pos:R:3:initial_magmoms:R:1 pbc="T T T"
Si      -1.84669304       0.70561764      -1.34068350       0.00000000
Si      -0.89922429       0.81446742       2.06487426       0.00000000
Si       0.86584608      -2.00329533      -1.31889527       0.00000000
Si       1.94114898       1.73157813      -0.10873393       0.00000000
Si      -0.50805252       2.05804602      -2.71758861       0.00000000
Si       2.22172794      -0.66929094      -2.71907339       0.00000000
Si      -2.55010665      -0.85221135       2.48240703       0.00000000
Si       0.73990809      -1.58495184       3.32406774       0.00000000
Si       0.85770108       3.41606187      -1.34793473       0.00000000
Si      -3.21428216       1.96657767       0.16380875       0.00000000
