10
Lattice="16.28999089631971 0.0 0.0 0.0 16.28999089631971 0.0 0.0 0.0 34.529650657227435" Properties=species:S:1:pos:R:3:initial_magmoms:R:1 pbc="T T T"
Si       1.35748839       1.35736425       1.35694697       0.00000000
Si      -1.35736458       1.35723393      -1.35774115       0.00000000
Si       1.35788424      -1.35791648      -1.35791380       0.00000000
Si      -1.35765780      -1.35885316       1.35781021       0.00000000
Si       0.00403157       2.71090035       2.71620743       0.00000000
Si       0.00046077       2.71246419      -2.71503342       0.00000000
Si       2.71410004       0.00070047      -2.71389394       0.00000000
Si      -2.71448448       2.71409319      -0.00027624       0.00000000
Si      -2.71034682      -0.00029322       2.71865903       0.00000000
Si      -2.71484286      -2.71538432      -0.00051795       0.00000000
