10
Lattice="16.28999089631971 0.0 0.0 0.0 16.28999089631971 0.0 0.0 0.0 34.529650657227435" Properties=species:S:1:pos:R:3:initial_magmoms:R:1 pbc="T T T"
Si       0.63521226      -1.27172772       1.82893303       0.00000000
Si      -0.55074861      -1.40667408      -1.78397540       0.00000000
Si      -2.00011063       0.92743857       0.82115008       0.00000000
Si       1.56455676       1.75772358      -0.01781731       0.00000000
Si       0.81930555       0.45944316       3.32745165       0.00000000
Si      -0.20147472      -3.43888416      -0.67957843       0.00000000
Si      -1.04562252       1.86887025       2.81806995       0.00000000
Si      -0.73917504      -3.09347100       1.65331513       0.00000000
Si      -3.16899863       1.45691244      -1.13122652       0.00000000
Si      -2.80151250      -0.70131708      -2.31773504       0.00000000
