10
Lattice="16.28999089631971 0.0 0.0 0.0 16.28999089631971 0.0 0.0 0.0 34.529650657227435" Properties=species:S:1:pos:R:3:initial_magmoms:R:1 pbc="T T T"
Si       1.34933980      -1.35055503       1.35473707       0.00000000
Si      -1.35565215      -1.35567009      -1.35604920       0.00000000
Si       1.35737077       1.35832536      -1.35639450       0.00000000
Si      -1.35480540       1.36062225       1.35843175       0.00000000
Si      -2.71352371      -2.71267596       0.00272784       0.00000000
Si       0.00067603      -2.71339272      -2.71347958       0.00000000
Si      -2.71391467       0.00151497      -2.71330694       0.00000000
Si       2.71574500       0.00159642      -2.71334146       0.00000000
Si      -2.71487578       2.71432125       0.00165742       0.00000000
Si       0.00067115       2.71647153      -2.71323788       0.00000000
