10
Lattice="16.28999089631971 0.0 0.0 0.0 16.28999089631971 0.0 0.0 0.0 34.529650657227435" Properties=species:S:1:pos:R:3:initial_magmoms:R:1 pbc="T T T"
Si       1.32900693       1.34542368       1.36796193       0.00000000
Si      -1.36007038       1.35369900      -1.35677432       0.00000000
Si       1.35480540      -1.36062225      -1.35843175       0.00000000
Si      -1.35451549      -1.36585134       1.39461884       0.00000000
Si       2.56476796      -0.10661805       2.75211828       0.00000000
Si      -0.16412374       2.57271228       2.80429262       0.00000000
Si       2.70414520      -2.71117728      -0.00369467       0.00000000
Si       2.71217617      -0.00229689      -2.71482624       0.00000000
Si      -0.00178481       2.71308321      -2.71427377       0.00000000
Si       2.71572739       2.71435383       0.00538663       0.00000000
