10
Lattice="16.28999089631971 0.0 0.0 0.0 16.28999089631971 0.0 0.0 0.0 34.529650657227435" Properties=species:S:1:pos:R:3:initial_magmoms:R:1 pbc="T T T"
Si      -1.33808141      -1.12330953      -1.63263185       0.00000000
Si       0.97697646      -2.27541978       0.26843365       0.00000000
Si       1.22877099       1.57271805      -1.75821626       0.00000000
Si      -1.16464052       0.69279741       2.36144960       0.00000000
Si      -2.50066880      -2.69855253      -0.23252280       0.00000000
Si      -3.22969517      -1.39825215       1.65600844       0.00000000
Si       0.02950771      -2.38426956      -3.13712410       0.00000000
Si       2.44925037      -2.39674770       2.08445259       0.00000000
Si       2.06632134       3.40791687      -0.51632215       0.00000000
Si       1.87620075      -3.08988720      -1.79644061       0.00000000
