10
Lattice="16.28999089631971 0.0 0.0 0.0 16.28999089631971 0.0 0.0 0.0 34.529650657227435" Properties=species:S:1:pos:R:3:initial_magmoms:R:1 pbc="T T T"
Si       1.86846300      -0.88205463      -1.10854052       0.00000000
Si      -1.46406375      -0.74956806      -1.74633806       0.00000000
Si       0.47257290       2.35929699      -0.28887522       0.00000000
Si      -0.16301403      -1.03907394       2.19142550       0.00000000
Si       1.59853770       0.15654690      -3.23273676       0.00000000
Si       0.95544108       2.37529377      -2.64400589       0.00000000
Si      -1.58838903       3.31374438       0.50047304       0.00000000
Si      -1.96612155      -2.95842690      -1.20377335       0.00000000
Si      -3.54535234       0.24718446      -1.42314035       0.00000000
Si       3.83572485      -0.47034117       0.14046670       0.00000000
