10
Lattice="16.28999089631971 0.0 0.0 0.0 16.28999089631971 0.0 0.0 0.0 34.529650657227435" Properties=species:S:1:pos:R:3:initial_magmoms:R:1 pbc="T T T"
Si      -1.35336994       1.35255870      -1.36481973       0.00000000
Si       1.36358703      -1.36436895      -1.36447444       0.00000000
Si      -1.36813357      -1.37345388       1.36810005       0.00000000
Si       1.36927224       1.36928853       1.38712590       0.00000000
Si      -2.70682676       2.70609480      -0.00555928       0.00000000
Si       2.72515410       2.70329292      -0.01305222       0.00000000
Si      -2.70867581      -2.72152828      -0.00780371       0.00000000
Si       0.00443088       2.71037907      -2.72214653       0.00000000
Si      -2.71085833      -0.00480555      -2.72176670       0.00000000
Si       2.71818198      -2.71934576      -0.00939207       0.00000000
