10
Lattice="16.290000149 0.0 0.0 0.0 16.290000149 0.0 0.0 0.0 29.1751946751" Properties=species:S:1:pos:R:3:initial_magmoms:R:1 pbc="T T T"
Si       1.36850662       1.35001747       1.33744927       0.00000000
Si       1.44171388      -1.33442143      -1.28160795       0.00000000
Si      -1.34907265      -1.38704301       1.33651567       0.00000000
Si      -1.37790595       1.33980364      -1.35874717       0.00000000
Si       0.11886813      -2.67114691      -2.62156046       0.00000000
Si       0.03266145       2.74362699      -2.61761014       0.00000000
Si       0.00399105       2.69762402       2.68843584       0.00000000
Si       2.69397506      -0.03290580       2.69803448       0.00000000
Si      -2.71140536      -0.02384856       2.68210482       0.00000000
Si      -2.79793785      -0.09001854      -2.59391404       0.00000000
