10
Lattice="16.290000149 0.0 0.0 0.0 16.290000149 0.0 0.0 0.0 29.1751946751" Properties=species:S:1:pos:R:3:initial_magmoms:R:1 pbc="T T T"
Si       1.34443000       1.35538340      -1.36528241       0.00000000
Si      -1.35615880      -1.36294522      -1.35086986       0.00000000
Si       1.38981394      -1.34857744       1.33281042       0.00000000
Si      -1.38391696       1.35570920       1.33432753       0.00000000
Si       0.02684592      -2.69792702       2.68426379       0.00000000
Si      -0.02924055       2.72592627       2.67078485       0.00000000
Si       2.70498710      -0.00295989      -2.70319849       0.00000000
Si      -2.70258759      -0.00219752      -2.70629106       0.00000000
Si       2.71759556       2.70352752      -0.02287335       0.00000000
Si       2.71080263      -2.71780082      -0.04988958       0.00000000
