10
Lattice="16.290000149 0.0 0.0 0.0 16.290000149 0.0 0.0 0.0 29.1751946751" Properties=species:S:1:pos:R:3:initial_magmoms:R:1 pbc="T T T"
Si      -1.35156502      -1.31447269       1.40320141       0.00000000
Si       1.34773687       1.36811566       1.36320222       0.00000000
Si      -1.37741725       1.34724817      -1.36536994       0.00000000
Si       1.43109280      -1.37699371      -1.28657940       0.00000000
Si      -2.67325418      -2.65184912       0.00674530       0.00000000
Si      -2.56197719      -0.10656918      -2.82495533       0.00000000
Si       2.69022836      -0.01137042      -2.71353526       0.00000000
Si       2.72148887       2.71598285       0.01612513       0.00000000
Si       0.00115659      -2.68107338       2.76037312       0.00000000
Si       2.80696251      -2.64160271       0.12947951       0.00000000
