10
Lattice="16.290000149 0.0 0.0 0.0 16.290000149 0.0 0.0 0.0 29.1751946751" Properties=species:S:1:pos:R:3:initial_magmoms:R:1 pbc="T T T"
Si      -1.34298111       1.35632170      -1.37009632       0.00000000
Si       1.32677724      -1.34877943      -1.39649987       0.00000000
Si       1.34790374       1.37878561       1.35168677       0.00000000
Si      -1.34449608      -1.37166688       1.36262747       0.00000000
Si       2.66559696      -2.70692561      -0.03270539       0.00000000
Si      -2.68666178       2.72137484      -0.01922645       0.00000000
Si      -2.71036373      -2.71137278      -0.00983204       0.00000000
Si      -2.72613245      -0.02836089       2.70033932       0.00000000
Si       2.71831140       0.03741813       2.70944198       0.00000000
Si       2.70799983       2.72878679      -0.00239237       0.00000000
