10
Lattice="16.290000149 0.0 0.0 0.0 16.290000149 0.0 0.0 0.0 29.1751946751" Properties=species:S:1:pos:R:3:initial_magmoms:R:1 pbc="T T T"
Si       1.31297401       1.36036162       1.34385906       0.00000000
Si      -1.37586970       1.26460900      -1.41605892       0.00000000
Si       1.28593261      -1.44953308      -1.32911392       0.00000000
Si      -1.42706917      -1.38899944       1.28259116       0.00000000
Si      -2.18737235      -0.59113153      -2.59861067       0.00000000
Si      -0.55369711      -2.32748264      -2.51694113       0.00000000
Si       2.62210358       2.64797210      -0.12818997       0.00000000
Si       2.63008568      -0.03109761       2.68539287       0.00000000
Si      -0.10766061       2.69174333       2.64364316       0.00000000
Si       2.53605980      -2.82059724       0.08339729       0.00000000
