10
Lattice="16.290000149 0.0 0.0 0.0 16.290000149 0.0 0.0 0.0 29.1751946751" Properties=species:S:1:pos:R:3:initial_magmoms:R:1 pbc="T T T"
Si       1.35467641       1.37021707       1.33645732       0.00000000
Si      -1.32889260       1.36031275      -1.37385992       0.00000000
Si       1.38391696      -1.35570920      -1.33432753       0.00000000
Si      -1.34699405      -1.35400852       1.37613558       0.00000000
Si       2.70995555       0.00408879       2.67241866       0.00000000
Si      -2.69830820      -0.00941562      -2.69940571       0.00000000
Si       0.05839965      -2.69135029       2.71002548       0.00000000
Si       0.02775816      -2.71865441      -2.68519739       0.00000000
Si      -2.69353523       2.71148681      -0.02275665       0.00000000
Si      -0.02176344       2.71599914       2.69602139       0.00000000
