10
Lattice="16.290000149 0.0 0.0 0.0 16.290000149 0.0 0.0 0.0 29.1751946751" Properties=species:S:1:pos:R:3:initial_magmoms:R:1 pbc="T T T"
Si       1.65154538      -1.69867235      -0.28121970       0.00000000
Si      -1.86382037      -0.83149048      -1.25333719       0.00000000
Si      -0.62801209       0.32848785       2.32599240       0.00000000
Si       0.71070013       1.86530276      -1.40335604       0.00000000
H        2.18284373       0.73078570       1.13479837       0.00000000
H       -1.05464719       2.50989806       0.12460726       0.00000000
H       -2.61724916      -0.26077032       1.24633514       0.00000000
H        0.49889754      -1.73056817       2.51679817       0.00000000
H       -0.47141631       2.38638728      -2.20252297       0.00000000
H       -3.26852337       0.15993522       1.19767092       0.00000000
