10
Lattice="16.290000149 0.0 0.0 0.0 16.290000149 0.0 0.0 0.0 29.1751946751" Properties=species:S:1:pos:R:3:initial_magmoms:R:1 pbc="T T T"
Si      -0.91191421       0.89397892      -0.80640238       0.00000000
Si       0.90453484      -1.56077749       1.48504658       0.00000000
H       -2.02149128      -0.34266015       1.41613477       0.00000000
Si       1.92787265       0.58218832       1.89195302       0.00000000
Si       1.88051762      -1.97634517      -0.66361898       0.00000000
Si      -1.40118436      -1.64761948       1.85119528       0.00000000
Si      -2.21930075      -0.57858823      -2.08739765       0.00000000
Si       0.43794036       2.19794456      -2.19960545       0.00000000
Si      -2.06037551       2.31674753       0.66032218       0.00000000
Si       3.04834773       2.01570833       0.33516464       0.00000000
