10
Lattice="16.290000149 0.0 0.0 0.0 16.290000149 0.0 0.0 0.0 29.1751946751" Properties=species:S:1:pos:R:3:initial_magmoms:R:1 pbc="T T T"
Si       1.35806473       1.33866334      -1.31539574       0.00000000
Si       1.43237971      -1.31992984       1.28257073       0.00000000
Si      -1.33713208       1.44156727       1.28887258       0.00000000
Si      -1.30217374      -1.29686320      -1.47606062       0.00000000
Si      -0.04898403       2.70588305      -2.56322174       0.00000000
Si       0.04996143      -2.63643878       2.64505232       0.00000000
Si      -2.70239699       0.08073324       2.61780269       0.00000000
Si      -2.67592574      -2.64473039      -0.12898354       0.00000000
Si       2.77770567      -2.59851566      -0.18030270       0.00000000
Si       2.76677508       0.08472429       2.62168299       0.00000000
