10
Lattice="16.290000149 0.0 0.0 0.0 16.290000149 0.0 0.0 0.0 29.1751946751" Properties=species:S:1:pos:R:3:initial_magmoms:R:1 pbc="T T T"
Si       1.00936099       0.05748741      -1.13415652       0.00000000
H       -1.16480017      -1.75282031      -0.28259094       0.00000000
H        1.97043842       0.30762036       1.29651648       0.00000000
Si      -1.68559148      -2.02797470       1.10355174       0.00000000
Si       0.14085963       1.47838267      -2.73295719       0.00000000
H       -2.64883547      -0.85491550      -1.51652662       0.00000000
Si       1.26721540       2.91105235       0.35964262       0.00000000
Si       1.36751293      -2.07094772      -2.04322641       0.00000000
Si       2.89893585       1.38080557      -0.70744012       0.00000000
Si      -2.54181017      -0.15501564       2.21031275       0.00000000
