10
Lattice="16.290000149 0.0 0.0 0.0 16.290000149 0.0 0.0 0.0 29.1751946751" Properties=species:S:1:pos:R:3:initial_magmoms:R:1 pbc="T T T"
Si       1.02177397      -1.13559546      -0.01925563       0.00000000
Si      -0.38214711       2.51526888       0.90060908       0.00000000
Si      -1.91221796       1.80447101      -0.72380740       0.00000000
H        1.20928816       1.99801250      -1.68349626       0.00000000
Si      -0.30064824       1.05723241       2.82614276       0.00000000
Si      -1.87849766      -0.62233339       2.37421899       0.00000000
Si       2.89352594      -0.25394318       1.11186667       0.00000000
Si      -1.27757584       0.73609135      -2.77248957       0.00000000
Si       1.30890151      -1.87998493      -2.22317901       0.00000000
Si       0.17601345      -3.06452859       0.99586610       0.00000000
