10
Lattice="16.290000149 0.0 0.0 0.0 16.290000149 0.0 0.0 0.0 29.1751946751" Properties=species:S:1:pos:R:3:initial_magmoms:R:1 pbc="T T T"
Si       1.39062844       1.34672689       1.27371314       0.00000000
Si       1.25569837      -1.40652748      -1.36110452       0.00000000
Si      -1.31444011       1.26311032      -1.47391625       0.00000000
Si      -1.41056740      -1.40382334       1.25886297       0.00000000
Si      -2.17316747      -0.67509019      -2.51231978       0.00000000
Si      -0.46926603      -2.34610211      -2.63850716       0.00000000
Si      -0.03341079       2.70679529       2.54545988       0.00000000
Si       2.58061295      -0.08511525      -2.72422184       0.00000000
Si       2.72005291      -0.06038703       2.58764721       0.00000000
Si       2.68540652       2.66093894      -0.19720681       0.00000000
