10
Lattice="16.290000149 0.0 0.0 0.0 16.290000149 0.0 0.0 0.0 29.1751946751" Properties=species:S:1:pos:R:3:initial_magmoms:R:1 pbc="T T T"
Si      -1.30269502      -1.35215146       1.43571425       0.00000000
Si       1.35666053      -1.46183203      -1.28930145       0.00000000
Si       1.38904180       1.28725210       1.43766899       0.00000000
Si      -1.30212487       1.52761105      -1.32031176       0.00000000
Si       2.70343955       0.00798210      -2.50995338       0.00000000
Si      -2.53180811       2.72965603       0.27933207       0.00000000
Si      -2.64789065      -2.68512959       0.04500566       0.00000000
Si       2.80267824       2.68060097       0.18727557       0.00000000
Si      -2.64503990      -0.04945644       2.86185611       0.00000000
Si       0.17875196       2.84362429      -2.68000129       0.00000000
