10
Lattice="16.290000149 0.0 0.0 0.0 16.290000149 0.0 0.0 0.0 29.1751946751" Properties=species:S:1:pos:R:3:initial_magmoms:R:1 pbc="T T T"
Si       1.37666791       1.33970590       1.33388990       0.00000000
Si       1.37785708      -1.36645408      -1.31247531       0.00000000
Si      -1.35610993      -1.35016408       1.36043933       0.00000000
Si      -1.35115777       1.37600002      -1.34223401       0.00000000
Si      -0.05751999       2.66085749       2.61756929       0.00000000
Si      -0.00066789      -2.70216893      -2.65660570       0.00000000
Si       2.73435797      -0.01192428      -2.67069732       0.00000000
Si      -2.71648784       0.02070459      -2.68942780       0.00000000
Si       0.00597843      -2.67727781       2.73943408       0.00000000
Si       2.72645732       2.69638598      -0.01989748       0.00000000
