10
Lattice="16.290000149 0.0 0.0 0.0 16.290000149 0.0 0.0 0.0 29.1751946751" Properties=species:S:1:pos:R:3:initial_magmoms:R:1 pbc="T T T"
Si       1.31017213      -1.42662934       1.29742091       0.00000000
Si      -1.35075052      -1.38686545      -1.32309508       0.00000000
Si       1.37689597       1.32919885      -1.35553789       0.00000000
Si      -1.29803608       1.35747829       1.41905229       0.00000000
Si       2.65873979      -0.08410527       2.61225941       0.00000000
Si      -2.66844375       2.69884577       0.06129708       0.00000000
Si       0.00962739       2.68583006      -2.68405956       0.00000000
Si      -2.68957025      -0.02871927      -2.68688955       0.00000000
Si      -2.62933634      -0.03921003       2.76251166       0.00000000
Si       0.03663621      -2.73745308      -2.65815199       0.00000000
