10
Lattice="16.290000149 0.0 0.0 0.0 16.290000149 0.0 0.0 0.0 29.1751946751" Properties=species:S:1:pos:R:3:initial_magmoms:R:1 pbc="T T T"
Si       1.42403923      -1.36006840      -1.27174674       0.00000000
Si       1.35607735       1.34944732       1.35542119       0.00000000
Si      -1.32445846      -1.38623014       1.38421711       0.00000000
Si      -1.33884253       1.33608952      -1.42275754       0.00000000
Si       0.03341079      -2.70679529      -2.54545988       0.00000000
Si      -2.68416848       2.61467534       0.04011589       0.00000000
Si       2.69707016       2.70200603      -0.03057560       0.00000000
Si       2.70124040      -0.03003876       2.71163012       0.00000000
Si       0.01291797       2.68012856       2.74343108       0.00000000
Si      -2.71114472      -0.07187148      -2.73335105       0.00000000
