10
Lattice="16.290000149 0.0 0.0 0.0 16.290000149 0.0 0.0 0.0 29.1751946751" Properties=species:S:1:pos:R:3:initial_magmoms:R:1 pbc="T T T"
Si      -1.34668128      -1.34734591       1.36866673       0.00000000
Si       1.35014779      -1.36976095      -1.36014758       0.00000000
Si      -1.36729139       1.34662915      -1.37187600       0.00000000
Si       1.33053463       1.34646625       1.41499694       0.00000000
Si      -2.64710971       2.69254154       0.08574590       0.00000000
Si       0.04634505       2.73997803      -2.62226941       0.00000000
Si       2.70581789       0.02920797      -2.67654986       0.00000000
Si      -2.71068860      -2.67739184      -0.01137833       0.00000000
Si       2.71899650       2.70642062       0.11279130       0.00000000
Si       0.00496845      -2.70497081       2.72907689       0.00000000
