10
Lattice="16.290000149 0.0 0.0 0.0 16.290000149 0.0 0.0 0.0 29.1751946751" Properties=species:S:1:pos:R:3:initial_magmoms:R:1 pbc="T T T"
Si      -1.33187041      -1.33829356       1.33156172       0.00000000
Si       1.49723020      -1.23796834      -1.27870502       0.00000000
Si      -1.25012719       1.37106415      -1.41251122       0.00000000
Si       1.42003189       1.42982218       1.23516688       0.00000000
Si       0.65743183       2.15855534      -2.53601587       0.00000000
H       -0.55429984      -0.45750465      -3.33754891       0.00000000
Si       2.36133326       0.48754341      -2.66220325       0.00000000
Si       0.10303425      -2.68556942       2.59085065       0.00000000
Si      -2.66242133       0.08164548       2.61684575       0.00000000
Si      -2.69169446      -2.62023546      -0.07851337       0.00000000
