10
Lattice="16.290000149 0.0 0.0 0.0 16.290000149 0.0 0.0 0.0 29.1751946751" Properties=species:S:1:pos:R:3:initial_magmoms:R:1 pbc="T T T"
Si       1.35853714       1.36511830       1.33196434       0.00000000
Si       1.36451557      -1.34760655      -1.35098656       0.00000000
Si      -1.32919885       1.36656811      -1.37636898       0.00000000
Si      -1.35563752      -1.37722177       1.35673408       0.00000000
Si       2.69475698      -0.00962739       2.68624770       0.00000000
Si      -0.00399105      -2.69762402      -2.68843584       0.00000000
Si      -2.70790301       0.00185706      -2.68035431       0.00000000
Si      -2.71485884       2.68148063      -0.01846790       0.00000000
Si       0.01167993       2.71326242       2.69861798       0.00000000
Si       2.69650001       2.72275949      -0.04895598       0.00000000
