10
Lattice="16.290000149 0.0 0.0 0.0 16.290000149 0.0 0.0 0.0 29.1751946751" Properties=species:S:1:pos:R:3:initial_magmoms:R:1 pbc="T T T"
Si      -2.07495506       0.71070664      -0.84383416       0.00000000
Si      -0.76681918      -1.49183821       1.71958597       0.00000000
Si       0.89155171       2.08849205       0.81139134       0.00000000
Si       1.03720060      -0.68118265      -2.08202942       0.00000000
H       -1.41175657       2.27678816       1.73286069       0.00000000
Si      -1.33690402       1.29161782      -3.00294444       0.00000000
Si      -2.69684210       2.20635020       0.92453274       0.00000000
H        0.47965905      -3.53659161      -0.56500682       0.00000000
Si      -2.27719541      -2.79298569       0.50090892       0.00000000
Si      -3.35708721      -1.27426897      -0.96424018       0.00000000
