10
Lattice="16.290000149 0.0 0.0 0.0 16.290000149 0.0 0.0 0.0 29.1751946751" Properties=species:S:1:pos:R:3:initial_magmoms:R:1 pbc="T T T"
H        0.71998543       0.08514783       1.32344518       0.00000000
H       -1.38592063       0.81109540       1.63004730       0.00000000
Si       1.60668271      -0.79192207      -1.52157393       0.00000000
Si      -1.88162534      -1.45331236      -0.14946452       0.00000000
Si      -0.34466382       1.95017366      -1.36960034       0.00000000
H        1.85756501       1.72294445       0.19328566       0.00000000
H        2.50883921       1.30223890       0.24194989       0.00000000
Si      -0.80575228       0.93221155       3.03585406       0.00000000
Si       0.11657124      -1.80367769      -2.98818179       0.00000000
Si      -1.00390384      -3.23719770      -1.43139340       0.00000000
