10
Lattice="16.290000149 0.0 0.0 0.0 16.290000149 0.0 0.0 0.0 29.1751946751" Properties=species:S:1:pos:R:3:initial_magmoms:R:1 pbc="T T T"
Si      -0.74220499       1.32198238      -1.79269901       0.00000000
Si      -1.51003414      -1.85254117      -0.06030513       0.00000000
Si       1.99609517      -0.89016869      -0.97804005       0.00000000
Si      -0.63464212       1.06837966       2.04868217       0.00000000
H        2.48686400       1.26192115       1.08899332       0.00000000
H        1.27757584      -0.73609135       2.77248957       0.00000000
Si      -2.49057812       2.30446487      -0.52489093       0.00000000
Si       0.80615953      -2.03612263      -2.66629187       0.00000000
Si      -0.62545456      -0.40817853      -3.59727233       0.00000000
Si       2.58647735      -2.61607628       0.54931057       0.00000000
