10
Lattice="16.290000149 0.0 0.0 0.0 16.290000149 0.0 0.0 0.0 29.1751946751" Properties=species:S:1:pos:R:3:initial_magmoms:R:1 pbc="T T T"
Si       1.35271673      -1.24822126       1.45559452       0.00000000
Si      -1.17197087       1.58742093       1.28554660       0.00000000
Si       1.32376940       1.42400665      -1.34340101       0.00000000
Si      -1.45888843      -1.36736632      -1.36539911       0.00000000
Si      -0.51955978       2.58586485      -2.28170445       0.00000000
Si       0.06930255      -2.49328226      -2.69683829       0.00000000
Si      -1.46392204       3.40078188      -0.29245215       0.00000000
Si       2.80554039      -2.43833609       0.10704379       0.00000000
Si      -2.65284770       0.27140769       2.64523613       0.00000000
Si       0.00593771      -2.71803539       2.67624644       0.00000000
