10
Lattice="16.290000149 0.0 0.0 0.0 16.290000149 0.0 0.0 0.0 29.1751946751" Properties=species:S:1:pos:R:3:initial_magmoms:R:1 pbc="T T T"
Si      -1.32168916      -1.33737643      -1.39645611       0.00000000
Si       1.35156502       1.31447269      -1.40320141       0.00000000
Si      -1.37850868       1.35931906       1.33561124       0.00000000
Si       1.35272161      -1.36660069       1.35717171       0.00000000
Si       2.69930189       2.68258835      -0.03999919       0.00000000
Si      -2.69408095      -2.70003494      -0.03299715       0.00000000
Si       0.09817983      -2.72101646      -2.67597220       0.00000000
Si      -0.01733256       2.71388144       2.68840666       0.00000000
Si       2.70040961      -0.00983916       2.71874887       0.00000000
Si      -2.70948803       0.00188964       2.71912814       0.00000000
