10
Lattice="16.290000149 0.0 0.0 0.0 16.290000149 0.0 0.0 0.0 29.1751946751" Properties=species:S:1:pos:R:3:initial_magmoms:R:1 pbc="T T T"
Si      -1.36086661       1.35283564       1.35162842       0.00000000
Si      -1.35975889      -1.34425081      -1.36306510       0.00000000
Si       1.32437701      -1.36458073       1.39238617       0.00000000
Si       1.35563752       1.37722177      -1.35673408       0.00000000
Si       2.69470811      -2.70493172       0.02666613       0.00000000
Si       2.69690726       0.01883124       2.70343189       0.00000000
Si       0.01270620       2.71624349       2.68458471       0.00000000
Si       0.00257382      -2.70744527      -2.70865425       0.00000000
Si      -2.72430704      -2.69193230      -0.01333306       0.00000000
Si      -2.71572221       2.70417260      -0.01697996       0.00000000
