10
Lattice="16.290000149 0.0 0.0 0.0 16.290000149 0.0 0.0 0.0 29.1751946751" Properties=species:S:1:pos:R:3:initial_magmoms:R:1 pbc="T T T"
Si      -1.32942447       1.40711392      -1.31393407       0.00000000
Si       1.33527258       1.37635840       1.34550163       0.00000000
Si       1.35067966      -1.32556618      -1.40662366       0.00000000
Si      -1.38420774      -1.33322248       1.36741220       0.00000000
Si      -2.72005291       0.06038703      -2.58764721       0.00000000
Si       2.64471655      -2.67911858       0.02584922       0.00000000
Si       2.67832282       0.01881495       2.70938363       0.00000000
Si       2.66625193       2.73378783      -0.03801528       0.00000000
Si      -0.05222330       2.73714357       2.66944279       0.00000000
Si      -2.75271436      -2.68323995       0.02996293       0.00000000
