10
Lattice="16.290000149 0.0 0.0 0.0 16.290000149 0.0 0.0 0.0 29.1751946751" Properties=species:S:1:pos:R:3:initial_magmoms:R:1 pbc="T T T"
Si      -1.34856766      -1.34252407      -1.31483850       0.00000000
Si       1.39610188      -1.28360314       1.35839706       0.00000000
Si       1.38613240       1.33379263      -1.34130040       0.00000000
Si      -1.18499977       1.44902809       1.41447179       0.00000000
Si       2.27664155       0.60577624       2.42527558       0.00000000
Si       0.67458520       2.38182608       2.51291787       0.00000000
Si      -2.65873979       0.08410527      -2.61225941       0.00000000
Si       0.08754246      -2.67722894      -2.59843036       0.00000000
Si       0.01809819      -2.60016095       2.71600640       0.00000000
Si      -2.72197757      -2.59375898       0.11792614       0.00000000
