10
Lattice="16.290000149 0.0 0.0 0.0 16.290000149 0.0 0.0 0.0 29.1751946751" Properties=species:S:1:pos:R:3:initial_magmoms:R:1 pbc="T T T"
Si      -1.18287230      -1.47439162       1.33657402       0.00000000
Si       1.51037623       1.30114747       1.21867706       0.00000000
Si       1.39232260      -1.33848415      -1.32058601       0.00000000
Si      -1.07989180       1.51871671      -1.46514910       0.00000000
H        2.75685447      -0.74360593      -1.06591574       0.00000000
Si      -1.32099847      -3.38098953      -0.02380696       0.00000000
Si       0.07159455       2.44289729       2.69001130       0.00000000
Si       2.27719541       2.79298569      -0.50090892       0.00000000
Si       0.84584197      -0.96106114      -3.52267136       0.00000000
Si       0.94876219      -3.55916955      -0.72730843       0.00000000
