10
Lattice="16.290000149 0.0 0.0 0.0 16.290000149 0.0 0.0 0.0 29.1751946751" Properties=species:S:1:pos:R:3:initial_magmoms:R:1 pbc="T T T"
Si       1.35232088       1.35309628       1.36090613       0.00000000
Si       1.38749588      -1.36078516      -1.32394116       0.00000000
Si      -1.33796287      -1.35764119       1.38092031       0.00000000
Si      -1.34516305       1.37948608      -1.35620892       0.00000000
Si      -2.68832243       2.71016732       0.03180096       0.00000000
Si       0.05222330      -2.73714357      -2.66944279       0.00000000
Si      -2.70124040       0.03003876      -2.71163012       0.00000000
Si       2.69114060      -0.00504990       2.72470061       0.00000000
Si       2.71148681       2.70446582      -0.00175051       0.00000000
Si      -2.69650001      -2.72275949       0.04895598       0.00000000
