10
Lattice="16.290000149 0.0 0.0 0.0 16.290000149 0.0 0.0 0.0 29.1751946751" Properties=species:S:1:pos:R:3:initial_magmoms:R:1 pbc="T T T"
Si       1.34599384      -1.34480467       1.36478643       0.00000000
Si      -1.35454609       1.32986674       1.40075945       0.00000000
Si      -1.41887530      -1.46085463      -1.22617800       0.00000000
Si       1.45922563       1.43430780      -1.21773762       0.00000000
Si      -0.99588916       0.92391994      -3.42496946       0.00000000
Si       0.03964986       2.77746783      -2.46879622       0.00000000
Si      -2.82592407      -0.09363492      -2.47400399       0.00000000
Si       2.68833872      -2.64749969      -0.06135543       0.00000000
Si      -0.08053776      -2.61294860      -2.78677375       0.00000000
Si      -0.01016496      -2.71479368       2.71090074       0.00000000
