10
Lattice="16.290000149 0.0 0.0 0.0 16.290000149 0.0 0.0 0.0 29.1751946751" Properties=species:S:1:pos:R:3:initial_magmoms:R:1 pbc="T T T"
Si       1.36958176      -1.34803009       1.34100865       0.00000000
Si       1.38025171       1.34324083      -1.33494021       0.00000000
Si      -1.35053875       1.37687968       1.34903183       0.00000000
Si      -1.37927431      -1.34457661      -1.35760933       0.00000000
Si      -0.05465295       2.69051670      -2.59422914       0.00000000
Si      -0.00575037      -2.69001659       2.68327183       0.00000000
Si      -2.72784198       0.02182860       2.68134627       0.00000000
Si       2.72696231       0.01508454       2.69896808       0.00000000
Si       2.72463284      -2.70141959      -0.02479892       0.00000000
Si      -0.04214223      -2.78614389      -2.64648191       0.00000000
