10
Lattice="16.290000149 0.0 0.0 0.0 16.290000149 0.0 0.0 0.0 29.1751946751" Properties=species:S:1:pos:R:3:initial_magmoms:R:1 pbc="T T T"
Si      -1.36914193       1.23724180      -1.44653533       0.00000000
Si       1.19695663      -1.40141242      -1.47886144       0.00000000
Si      -1.36993688      -1.42773706       1.29680823       0.00000000
Si       1.43005024       1.41029047       1.32394116       0.00000000
Si       2.55080225      -2.75906991      -0.17563467       0.00000000
Si       0.05248638      -2.64026693       2.68429296       0.00000000
Si      -2.76798054       2.55490733      -0.12568674       0.00000000
Si      -0.06778269       2.75204892       2.58002082       0.00000000
Si       2.73393443       2.64137465      -0.18231579       0.00000000
Si      -0.03784167       2.63393012      -2.78999469       0.00000000
