10
Lattice="16.290000149 0.0 0.0 0.0 16.290000149 0.0 0.0 0.0 29.1751946751" Properties=species:S:1:pos:R:3:initial_magmoms:R:1 pbc="T T T"
Si       1.34838847       1.28528101      -1.37108827       0.00000000
Si      -1.52278921       1.26312661       1.22319921       0.00000000
Si       1.04682799      -0.81655255       1.94566456       0.00000000
Si      -1.41055111      -1.40367673      -1.29111907       0.00000000
Si      -0.77486644      -2.11295963       2.59685490       0.00000000
Si      -2.43555050      -0.46944522       2.50717035       0.00000000
Si       2.60128496       2.60397933       0.10085865       0.00000000
Si      -0.08097759       2.64751436      -2.66296589       0.00000000
Si       2.71285517      -0.09109368      -2.70938363       0.00000000
Si      -0.07319097      -2.73707841      -2.69850128       0.00000000
