10
Lattice="16.290000149 0.0 0.0 0.0 16.290000149 0.0 0.0 0.0 29.1751946751" Properties=species:S:1:pos:R:3:initial_magmoms:R:1 pbc="T T T"
Si       0.96764230      -1.43803234      -1.53067659       0.00000000
Si      -1.68508649       0.95246002      -1.29464926       0.00000000
Si      -1.27472509      -1.48310677       1.31451757       0.00000000
Si       1.50418603       1.28648647       1.27974074       0.00000000
H       -1.16429518       1.22761441      -2.68079194       0.00000000
Si      -0.93768499      -2.93705445      -1.84466003       0.00000000
Si      -2.65922849      -2.49468320      -0.32232755       0.00000000
Si      -2.57494403      -0.05317056       2.61952578       0.00000000
Si       0.16384482       2.64626165       2.62295416       0.00000000
Si       2.52947864      -2.72490978      -0.40290944       0.00000000
