10
Lattice="16.290000149 0.0 0.0 0.0 16.290000149 0.0 0.0 0.0 29.1751946751" Properties=species:S:1:pos:R:3:initial_magmoms:R:1 pbc="T T T"
Si      -1.35547462      -1.34294761       1.37686496       0.00000000
Si       1.33468858       1.35122293       1.39524533       0.00000000
Si      -1.37845981       1.34552143      -1.35944737       0.00000000
Si       1.36115983      -1.37424070      -1.35154089       0.00000000
Si       2.71272485      -2.69221574       0.05837956       0.00000000
Si       2.69995349       2.71205696       0.06631522       0.00000000
Si      -2.71665074      -2.69750999       0.02406954       0.00000000
Si      -0.02278971       2.74449036      -2.67584966       0.00000000
Si       2.73491184      -0.02637351      -2.69861798       0.00000000
Si      -2.72860761       2.71528238       0.00070020       0.00000000
