10
Lattice="16.290000149 0.0 0.0 0.0 16.290000149 0.0 0.0 0.0 29.1751946751" Properties=species:S:1:pos:R:3:initial_magmoms:R:1 pbc="T T T"
Si      -1.56183634       1.28687743      -1.12776715       0.00000000
Si      -1.38968362      -1.43716897       1.17789013       0.00000000
Si       1.58035807       1.11534373       1.45543376       0.00000000
Si       1.06104916      -1.11653290      -1.86972153       0.00000000
Si       2.08077059      -2.46148418      -0.25367832       0.00000000
Si       0.30133242      -3.04409604       1.19361556       0.00000000
Si       0.06256989       2.30529566      -2.52522980       0.00000000
Si       1.83666494       0.74714086      -3.15599751       0.00000000
Si      -2.52947864       2.72490978       0.40290944       0.00000000
Si      -2.98429545      -2.24303528      -0.38397474       0.00000000
