10
Lattice="16.290000149 0.0 0.0 0.0 16.290000149 0.0 0.0 0.0 29.1751946751" Properties=species:S:1:pos:R:3:initial_magmoms:R:1 pbc="T T T"
Si       1.32991561      -1.35806473       1.36513653       0.00000000
Si      -1.34185618      -1.36257706      -1.35364151       0.00000000
Si      -1.31916421       1.33644790       1.40857840       0.00000000
Si       1.35102745       1.36475992      -1.36414458       0.00000000
Si       2.63854019       0.07376112       2.68913604       0.00000000
Si      -2.65906559       2.70001865       0.03118828       0.00000000
Si      -2.67807602       0.01216863      -2.70792487       0.00000000
Si      -2.69534342      -2.71134020       0.02027676       0.00000000
Si       2.70635546      -2.70384680       0.00557246       0.00000000
Si       0.02278645      -2.71375112      -2.70474477       0.00000000
