10
Lattice="16.290000149 0.0 0.0 0.0 16.290000149 0.0 0.0 0.0 29.1751946751" Properties=species:S:1:pos:R:3:initial_magmoms:R:1 pbc="T T T"
Si       1.29834559       1.28319052       1.50233872       0.00000000
Si      -1.33729498      -1.36788809       1.40383451       0.00000000
Si       1.48421449      -1.30114796      -1.33033053       0.00000000
Si      -1.35081568       1.38887352      -1.40215986       0.00000000
Si      -0.00213399      -2.54192469      -2.70171055       0.00000000
Si      -2.60933222       2.72430656       0.08161965       0.00000000
Si       2.70301601      -2.72108211       0.10913186       0.00000000
Si       2.28271772       3.06836765       0.34296608       0.00000000
Si       2.36392337       2.37322447      -1.88670149       0.00000000
Si       3.09259137       0.18028257      -2.28430104       0.00000000
