10
Lattice="16.290000149 0.0 0.0 0.0 16.290000149 0.0 0.0 0.0 29.1751946751" Properties=species:S:1:pos:R:3:initial_magmoms:R:1 pbc="T T T"
Si      -1.34425081      -1.33187693       1.34696914       0.00000000
Si       1.31864293      -1.32195469      -1.39755018       0.00000000
Si      -1.20363553       1.39681864      -1.44223199       0.00000000
Si       1.42964299       1.40170564       1.24260947       0.00000000
Si       2.30301506       0.46322244      -2.55692281       0.00000000
Si       0.66933982       2.19957356      -2.63859235       0.00000000
Si      -2.64593585      -2.66007557      -0.07628730       0.00000000
Si      -2.70185942       0.06424776       2.63321595       0.00000000
Si       0.05090625       2.75123442       2.59091192       0.00000000
Si       2.70107750      -2.65012761      -0.03509776       0.00000000
