10
Lattice="16.290000149 0.0 0.0 0.0 16.290000149 0.0 0.0 0.0 29.1751946751" Properties=species:S:1:pos:R:3:initial_magmoms:R:1 pbc="T T T"
Si       1.33571485       1.36313418      -1.36925024       0.00000000
Si      -1.36132273      -1.34400320      -1.37645651       0.00000000
Si      -1.42509808       1.36437222       1.29747926       0.00000000
Si       1.40175451      -1.34159228       1.35816366       0.00000000
Si       0.05980059      -2.71891180       2.67405247       0.00000000
Si       2.70804962      -2.68936174      -0.06990377       0.00000000
Si       2.69511536       2.71030090      -0.00242154       0.00000000
Si       2.62949924       0.09465956       2.78200069       0.00000000
Si      -2.72429075      -2.69335279      -0.02500314       0.00000000
Si      -0.13463685       2.80217650       2.61220106       0.00000000
