10
Lattice="16.290000149 0.0 0.0 0.0 16.290000149 0.0 0.0 0.0 29.1751946751" Properties=species:S:1:pos:R:3:initial_magmoms:R:1 pbc="T T T"
Si      -1.34738012       1.33356457      -1.37733177       0.00000000
Si       1.30738654       1.47256714       1.28099527       0.00000000
Si      -1.40948738      -1.29617739       1.38728051       0.00000000
Si       1.41755581      -1.35422192      -1.34004587       0.00000000
H        2.21930075       0.57858823       2.08739765       0.00000000
H        0.19780947       0.23592807       3.50353243       0.00000000
Si      -0.02425581      -2.73860967       2.54611924       0.00000000
Si      -2.64041211      -2.66594372      -0.05076484       0.00000000
Si      -2.61974838       2.69457779       0.04501733       0.00000000
Si       0.07493400      -2.70498502      -2.72542999       0.00000000
