10
Lattice="16.290000149 0.0 0.0 0.0 16.290000149 0.0 0.0 0.0 29.1751946751" Properties=species:S:1:pos:R:3:initial_magmoms:R:1 pbc="T T T"
Si       1.34353405       1.28847385      -1.42873846       0.00000000
Si      -1.19998657       1.47113362       1.43781194       0.00000000
Si       1.46100124      -1.21108006       1.46240663       0.00000000
Si      -1.58035807      -1.11534373      -1.45543376       0.00000000
H        1.76477717      -3.01101105      -0.77725636       0.00000000
Si      -0.16865037       2.63013455      -2.68478894       0.00000000
Si      -2.53514756       0.09327654       2.81341070       0.00000000
Si       2.91604035       2.44998344      -0.08659198       0.00000000
H        1.96822298       3.17956368       0.86139762       0.00000000
Si      -2.60565068       2.89605252       0.22721642       0.00000000
