10
Lattice="16.290000149 0.0 0.0 0.0 16.290000149 0.0 0.0 0.0 29.1751946751" Properties=species:S:1:pos:R:3:initial_magmoms:R:1 pbc="T T T"
Si       1.77373667       1.02444553       1.13745331       0.00000000
Si       1.33797265      -1.28951641      -1.43763689       0.00000000
Si      -1.23455395       1.48649509      -1.37298466       0.00000000
Si      -1.28366830      -1.31504284       1.50634448       0.00000000
Si      -2.29431620       0.46864701       2.74436469       0.00000000
H       -3.15879393      -0.79689052      -1.59970510       0.00000000
Si      -2.51115239       0.02886588      -2.67659071       0.00000000
Si       3.43442073      -0.61906888       1.22713786       0.00000000
Si       2.74940994      -2.50672151      -0.04918938       0.00000000
Si       2.68649795       2.75701737      -0.14651783       0.00000000
