10
Lattice="16.290000149 0.0 0.0 0.0 16.290000149 0.0 0.0 0.0 29.1751946751" Properties=species:S:1:pos:R:3:initial_magmoms:R:1 pbc="T T T"
Si      -1.36055710       1.35834329       1.33791608       0.00000000
Si       1.34845363       1.37378621      -1.33698247       0.00000000
Si       1.38311875      -1.35978984       1.32099446       0.00000000
Si      -1.35518140      -1.37160009      -1.33847041       0.00000000
Si       2.67900455      -0.04615283      -2.62226650       0.00000000
Si       0.00581553      -2.71484093       2.65330890       0.00000000
Si      -2.72614782      -0.00984405      -2.65027468       0.00000000
Si       0.01260846       2.70648741       2.68032513       0.00000000
Si       2.73285929       0.01062923       2.67192268       0.00000000
Si      -2.70498710       0.00295989       2.70319849       0.00000000
