10
Lattice="16.290000149 0.0 0.0 0.0 16.290000149 0.0 0.0 0.0 29.1751946751" Properties=species:S:1:pos:R:3:initial_magmoms:R:1 pbc="T T T"
Si      -1.22715829       1.86051350       0.65177385       0.00000000
Si      -1.53007084      -0.71079787      -1.62441649       0.00000000
Si       1.63141093       0.60334903      -1.57420598       0.00000000
Si       0.08149887      -1.45803646       1.92553367       0.00000000
H        0.38214711      -2.51526888      -0.90060908       0.00000000
H        0.03720636       2.42633036       1.58362957       0.00000000
H        1.59143527      -0.51725637      -2.58410534       0.00000000
Si      -2.75002896      -2.03349701      -0.13143425       0.00000000
H       -0.34435431       3.01008252      -2.05973957       0.00000000
Si       2.33131079      -1.95429503       2.20050988       0.00000000
