10
Lattice="16.290000149 0.0 0.0 0.0 16.290000149 0.0 0.0 0.0 29.1751946751" Properties=species:S:1:pos:R:3:initial_magmoms:R:1 pbc="T T T"
H        0.64490482      -0.84613519       1.07574778       0.00000000
Si      -1.42938235       1.22637637       1.28980618       0.00000000
Si      -1.43627302      -1.32941062      -1.21322130       0.00000000
Si       1.50035788       1.35769006      -1.16651181       0.00000000
Si       0.06072912       2.23813199       2.75641404       0.00000000
Si       0.08405640      -2.64717878      -2.41127149       0.00000000
Si       1.07066026      -3.51326433      -0.43193876       0.00000000
Si       2.78575293      -0.60478255       2.38434278       0.00000000
Si       0.15959313       2.70666497      -2.54594419       0.00000000
Si      -2.68007969       0.06033816      -2.58107112       0.00000000
