10
Lattice="16.290000149 0.0 0.0 0.0 16.290000149 0.0 0.0 0.0 29.1751946751" Properties=species:S:1:pos:R:3:initial_magmoms:R:1 pbc="T T T"
Si       1.35308977      -1.38912976      -1.33158506       0.00000000
Si       1.36400732       1.33004593       1.38004506       0.00000000
Si      -1.34099281      -1.35255871       1.38599680       0.00000000
Si      -1.34833960       1.38461743      -1.36245242       0.00000000
Si      -2.69068448       2.68731245       0.06368945       0.00000000
Si       2.71068860       2.67739184       0.01137833       0.00000000
Si      -2.69707016      -2.70200603       0.03057560       0.00000000
Si       2.69798240      -0.06068025      -2.71368113       0.00000000
Si      -2.69353523       0.05163930      -2.75316101       0.00000000
Si       0.03474826       2.67967244       2.77228535       0.00000000
