10
Lattice="16.290000149 0.0 0.0 0.0 16.290000149 0.0 0.0 0.0 29.1751946751" Properties=species:S:1:pos:R:3:initial_magmoms:R:1 pbc="T T T"
Si       1.34668128       1.34734591      -1.36866673       0.00000000
Si       1.35164973      -1.35762490       1.36041015       0.00000000
Si      -1.32925906       1.34962651       1.39224029       0.00000000
Si      -1.36400732      -1.33004593      -1.38004506       0.00000000
Si       2.67721591       2.69381216       0.04633021       0.00000000
Si      -2.70500014      -2.68260464       0.00595174       0.00000000
Si      -2.69838640       2.70580160       0.05201937       0.00000000
Si       2.69168143       0.00555489       2.72589679       0.00000000
Si       2.69682907      -0.02241504      -2.72881431       0.00000000
Si      -2.67727456      -0.00389331       2.74947035       0.00000000
