10
Lattice="16.290000149 0.0 0.0 0.0 16.290000149 0.0 0.0 0.0 29.1751946751" Properties=species:S:1:pos:R:3:initial_magmoms:R:1 pbc="T T T"
Si      -1.22968324       1.20204498       1.59964383       0.00000000
Si      -1.94158883      -0.85053349      -1.06888986       0.00000000
Si       1.30212487      -1.52761105       1.32031176       0.00000000
Si       1.48087684       1.31601324      -1.35968953       0.00000000
H       -0.90173296      -2.58942584      -1.91591461       0.00000000
Si      -2.64925901       2.54520501       0.34858523       0.00000000
Si       2.65284770      -0.27140769      -2.64523613       0.00000000
Si       2.82746999       2.52734302       0.12104497       0.00000000
Si      -3.68479803       0.69165712      -0.60758802       0.00000000
Si       2.69116667      -0.24035895       2.75798075       0.00000000
