10
Lattice="16.290000149 0.0 0.0 0.0 16.290000149 0.0 0.0 0.0 29.1751946751" Properties=species:S:1:pos:R:3:initial_magmoms:R:1 pbc="T T T"
Si      -1.34599384       1.34480467      -1.36478643       0.00000000
Si      -1.35615880      -1.36998901       1.34611431       0.00000000
Si       1.35630541       1.34853508       1.36837498       0.00000000
Si       1.34234488      -1.30269502      -1.42614187       0.00000000
Si      -2.76486915      -0.11604996      -2.59096443       0.00000000
Si       0.11323179       2.77911247      -2.58252405       0.00000000
Si      -2.70053993       2.67467141       0.03597301       0.00000000
Si       2.69068448      -2.68731245      -0.06368945       0.00000000
Si       0.00653229      -2.70918992       2.71031723       0.00000000
Si      -2.71120988      -0.01659951       2.71192187       0.00000000
