10
Lattice="16.290000149 0.0 0.0 0.0 16.290000149 0.0 0.0 0.0 29.1751946751" Properties=species:S:1:pos:R:3:initial_magmoms:R:1 pbc="T T T"
Si      -1.31818583       1.43321702      -1.27600631       0.00000000
Si       1.31371293       1.38624155       1.36242324       0.00000000
Si      -1.39795797      -1.33408585       1.33494021       0.00000000
Si       1.27981832      -1.34591239      -1.45762190       0.00000000
Si      -2.64103159       0.09649154      -2.61595882       0.00000000
Si       2.64710971      -2.69254154      -0.08574590       0.00000000
Si      -0.02883063      -2.69026094       2.67516113       0.00000000
Si       2.66014171       0.02549385       2.71784444       0.00000000
Si       2.69345476       0.04743648      -2.70801531       0.00000000
Si       2.63753119       2.77175982       0.00148793       0.00000000
