10
Lattice="16.290000149 0.0 0.0 0.0 16.290000149 0.0 0.0 0.0 29.1751946751" Properties=species:S:1:pos:R:3:initial_magmoms:R:1 pbc="T T T"
Si      -0.38387385      -0.63959428      -2.22361664       0.00000000
Si      -1.99143623      -0.58982833       1.17435994       0.00000000
Si       0.75525328       2.04058316       1.01010359       0.00000000
Si       1.47206215      -1.87567949       0.34995646       0.00000000
H       -2.24722181       2.09790767      -0.27433436       0.00000000
H        2.65777868       1.84520090      -0.08536662       0.00000000
Si       1.77497471       0.69563188       2.62614680       0.00000000
Si      -2.14938407      -2.12346668      -1.89119447       0.00000000
Si      -1.07224039      -1.64524115       3.00586196       0.00000000
H       -0.45836802       3.31499874      -1.35582965       0.00000000
