10
Lattice="16.290000149 0.0 0.0 0.0 16.290000149 0.0 0.0 0.0 29.1751946751" Properties=species:S:1:pos:R:3:initial_magmoms:R:1 pbc="T T T"
H        1.90252541      -0.19538226      -1.09547021       0.00000000
Si       1.01972143      -1.34495128       1.61604321       0.00000000
Si       0.77561578       1.86367376      -1.28627598       0.00000000
Si      -0.75525328      -2.04058316      -1.01010359       0.00000000
Si      -1.06104916       1.11653290       1.86972153       0.00000000
H       -1.21362130       1.27441558      -2.36593324       0.00000000
H       -3.00247509       0.05732451      -1.28443795       0.00000000
H       -1.86489551       1.69512113      -2.41459746       0.00000000
H        2.28408608      -0.77913442       2.54789893       0.00000000
Si      -0.99847927       3.42182856      -0.65550827       0.00000000
