10
Lattice="16.290000149 0.0 0.0 0.0 16.290000149 0.0 0.0 0.0 29.1751946751" Properties=species:S:1:pos:R:3:initial_magmoms:R:1 pbc="T T T"
Si      -1.23618295       1.36418977       1.41890642       0.00000000
Si       1.32418153      -1.36853920       1.34060020       0.00000000
Si       1.34548224       1.41346702      -1.30713625       0.00000000
Si      -1.39012345      -1.35529543      -1.33281042       0.00000000
H       -1.88382449       0.53843337       2.49579203       0.00000000
Si       2.61294209       0.04580748       2.65786023       0.00000000
Si      -2.81142597       2.45070020       0.09108496       0.00000000
Si      -0.09228285       2.76166002      -2.59711748       0.00000000
Si       2.68391273       0.05185107      -2.68146297       0.00000000
Si      -0.00848709      -2.69860142      -2.67052227       0.00000000
