10
Lattice="16.290000149 0.0 0.0 0.0 16.290000149 0.0 0.0 0.0 29.1751946751" Properties=species:S:1:pos:R:3:initial_magmoms:R:1 pbc="T T T"
Si      -1.33578001      -1.28837611      -1.42870928       0.00000000
Si       1.36386397       1.38513871      -1.34068772       0.00000000
Si      -1.11982348       1.11550663       1.75806806       0.00000000
Si       1.33465600      -1.43200504       1.35279543       0.00000000
Si       2.39554226       0.24832476       2.73018554       0.00000000
Si       0.74399689       1.94699711       3.01140524       0.00000000
Si      -2.77540878      -0.40793418       2.49421657       0.00000000
Si       0.06113637      -2.64280817      -2.73657491       0.00000000
Si       2.74530486       0.03512124      -2.69978499       0.00000000
Si       0.03179808       2.69918786      -2.78485986       0.00000000
