10
Lattice="16.290000149 0.0 0.0 0.0 16.290000149 0.0 0.0 0.0 29.1751946751" Properties=species:S:1:pos:R:3:initial_magmoms:R:1 pbc="T T T"
Si       0.94781737      -0.72958024      -0.94798960       0.00000000
Si      -1.03985587       1.73889236       0.84702475       0.00000000
Si      -1.86771368      -0.25578558       1.94652231       0.00000000
Si      -1.30440547       2.24725439      -1.45304140       0.00000000
Si      -0.62468893      -1.89108983      -2.29013608       0.00000000
Si       2.33878578      -1.88670782       0.53761131       0.00000000
Si       2.09569223       0.95065183      -2.09472063       0.00000000
Si       0.90173296       2.58942584       1.91591461       0.00000000
Si      -3.16820955      -1.70843006       0.57641432       0.00000000
Si      -0.44403282      -1.62331480       3.28123203       0.00000000
