10
Lattice="16.290000149 0.0 0.0 0.0 16.290000149 0.0 0.0 0.0 29.1751946751" Properties=species:S:1:pos:R:3:initial_magmoms:R:1 pbc="T T T"
Si      -1.74555497      -0.31313453       1.49257378       0.00000000
Si       0.12096954      -2.30498615      -0.22777074       0.00000000
Si      -0.98660386       0.86608555      -1.97933273       0.00000000
Si       1.83184310       1.17832087       1.01170823       0.00000000
H       -0.42575544       2.66712914       1.50768654       0.00000000
Si      -2.50693328       2.18385371      -0.78128254       0.00000000
Si       1.72515989      -2.23490657      -2.01259245       0.00000000
Si      -1.07066026       3.51326433       0.43193876       0.00000000
Si       0.41021478      -3.19137393       2.01364276       0.00000000
Si      -3.66787272       0.74758720       0.72296132       0.00000000
