10
Lattice="16.290000149 0.0 0.0 0.0 16.290000149 0.0 0.0 0.0 29.1751946751" Properties=species:S:1:pos:R:3:initial_magmoms:R:1 pbc="T T T"
Si       2.07495506      -0.71070664       0.84383416       0.00000000
Si       0.73805104       0.58091118      -2.15911028       0.00000000
Si      -1.28213215      -1.98497561      -0.12040603       0.00000000
Si      -0.62188705       1.49564356       1.76836690       0.00000000
H        0.66319849       1.56608152       2.57669484       0.00000000
H        0.11774412       1.88587051      -2.59417078       0.00000000
Si      -0.12698055       3.56603742       0.05257370       0.00000000
Si       1.30813588      -2.20254486       2.56342013       0.00000000
Si       3.11215566      -1.39188929      -1.23819526       0.00000000
Si       2.96650677       1.37778541       1.65522549       0.00000000
