10
Lattice="16.28999089631971 0.0 0.0 0.0 16.28999089631971 0.0 0.0 0.0 34.450931932916035" Properties=species:S:1:pos:R:3:initial_magmoms:R:1 pbc="T T T"
Si      -1.35527913       1.35547461      -1.35647175       0.00000000
Si      -1.35671265      -1.35860881       1.35685071       0.00000000
Si       1.35874890       1.35671265       1.35709187       0.00000000
Si       1.35840681      -1.35732841      -1.36508449       0.00000000
Si      -2.71412577       2.71233387       0.00044786       0.00000000
Si       0.00079821       2.71425609       2.71394258       0.00000000
Si      -2.71448415      -0.00053757       2.71449380       0.00000000
Si      -2.71308321      -2.71681020      -0.00093018       0.00000000
Si       0.00115659      -2.71591357       2.71442489       0.00000000
Si       2.71616202      -0.00131949       2.71435599       0.00000000
