10
Lattice="16.28999089631971 0.0 0.0 0.0 16.28999089631971 0.0 0.0 0.0 34.450931932916035" Properties=species:S:1:pos:R:3:initial_magmoms:R:1 pbc="T T T"
Si      -0.15522741      -2.10435523       0.98188656       0.00000000
Si      -2.19672279       0.67023576      -0.48858339       0.00000000
Si       1.23600375       1.61326386       1.19500014       0.00000000
Si       1.49698584      -0.27798885      -1.83726923       0.00000000
Si       3.29111757       0.58857399       1.39932874       0.00000000
Si       1.15520535       3.48184089      -0.33045352       0.00000000
Si      -1.12818024      -1.69222149       3.10530539       0.00000000
Si      -1.29122685      -3.44219103      -0.66349087       0.00000000
Si       3.63545559       0.36843093      -0.93586009       0.00000000
Si      -2.87673255      -0.25814763      -2.53534885       0.00000000
