10
Lattice="16.28999089631971 0.0 0.0 0.0 16.28999089631971 0.0 0.0 0.0 34.450931932916035" Properties=species:S:1:pos:R:3:initial_magmoms:R:1 pbc="T T T"
Si      -0.89011818      -1.87089021       1.11606268       0.00000000
Si       1.83708846       0.87306255       1.22242655       0.00000000
Si      -0.07716573       0.20628027      -2.41212611       0.00000000
Si      -1.95916572       1.48522446       0.05226519       0.00000000
Si       0.43293933       2.13816024       2.55573003       0.00000000
Si      -2.26947393       1.26877923      -2.27573479       0.00000000
Si      -2.28434670      -0.61077726       2.53789822       0.00000000
Si       0.13629843      -2.06654940      -3.04984766       0.00000000
Si      -0.94899024       3.39957639       1.18085803       0.00000000
Si       3.49672995       1.82669544      -0.20406129       0.00000000
