10
Lattice="16.28999089631971 0.0 0.0 0.0 16.28999089631971 0.0 0.0 0.0 34.450931932916035" Properties=species:S:1:pos:R:3:initial_magmoms:R:1 pbc="T T T"
Si      -2.07801756      -0.99023652       0.47235699       0.00000000
Si       1.55782899      -1.63923012       0.66245734       0.00000000
Si       0.20318517       0.58575582      -2.27576093       0.00000000
Si       0.43622991       2.04452532       1.21136435       0.00000000
Si      -3.07856565       1.14433992       0.33141815       0.00000000
Si       2.29648275      -2.22637059      -1.51446381       0.00000000
Si       2.81538441      -0.46345050       2.34628203       0.00000000
Si      -1.59967800      -2.40790635       2.37136232       0.00000000
Si       2.21568435      -0.35779356      -3.03991748       0.00000000
Si      -0.29499561       3.76095375      -0.42867319       0.00000000
