10
Lattice="16.28999089631971 0.0 0.0 0.0 16.28999089631971 0.0 0.0 0.0 34.450931932916035" Properties=species:S:1:pos:R:3:initial_magmoms:R:1 pbc="T T T"
Si      -1.39686750      -1.87240518      -0.35897891       0.00000000
Si      -0.47833956       1.41766983      -1.89900533       0.00000000
Si      -0.02630835       0.81332712       2.28196210       0.00000000
Si       2.07500391      -1.11767319      -0.68664191       0.00000000
Si       3.15750699       0.76867623      -1.70890498       0.00000000
Si      -2.09491029       0.09117513      -3.03199376       0.00000000
Si      -3.32359983      -0.96471009      -1.33597344       0.00000000
Si       1.59967800       2.40790635      -2.37136232       0.00000000
Si      -2.84714991       2.17732140       1.06925417       0.00000000
Si      -0.47306160      -3.64826768       0.91198558       0.00000000
