10
Lattice="16.28999089631971 0.0 0.0 0.0 16.28999089631971 0.0 0.0 0.0 34.450931932916035" Properties=species:S:1:pos:R:3:initial_magmoms:R:1 pbc="T T T"
Si      -0.21709683       2.16389844       0.67627217       0.00000000
Si       2.19455622      -0.26997417       0.68488491       0.00000000
Si      -1.31230611      -1.40380704       1.37045884       0.00000000
Si      -0.10749771      -0.06012639      -2.49014920       0.00000000
Si       3.07696923       0.29453949      -1.45131522       0.00000000
Si       1.24352973       2.26373985       2.53982747       0.00000000
Si       0.47521188       3.46058244      -1.10094905       0.00000000
Si       1.93495878      -1.08027135      -2.97415062       0.00000000
Si      -1.66640184      -1.73887605      -2.84010196       0.00000000
Si      -3.50461431      -0.34130808       1.50685015       0.00000000
