10
Lattice="16.28999089631971 0.0 0.0 0.0 16.28999089631971 0.0 0.0 0.0 34.450931932916035" Properties=species:S:1:pos:R:3:initial_magmoms:R:1 pbc="T T T"
Si       1.39760055       1.71385461       0.85021502       0.00000000
Si      -1.64116863      -0.04536765       1.73643129       0.00000000
Si       0.81252891      -2.18929455      -0.65243211       0.00000000
Si       0.26803566      -2.94392880       1.63948632       0.00000000
Si       1.12244616       3.11994225      -1.02670725       0.00000000
Si      -2.04416694      -2.37959433       1.65447248       0.00000000
Si       1.73169216       0.29167245      -3.24335035       0.00000000
Si      -0.12621492       3.61080882       0.90075457       0.00000000
Si       1.81929978      -1.53147177       2.88344126       0.00000000
Si       2.39712237       0.82859085       2.82883650       0.00000000
