10
Lattice="16.28999089631971 0.0 0.0 0.0 16.28999089631971 0.0 0.0 0.0 34.450931932916035" Properties=species:S:1:pos:R:3:initial_magmoms:R:1 pbc="T T T"
Si       2.30453001      -0.11284083       0.67833923       0.00000000
Si      -0.43622991      -2.04452532      -1.21136435       0.00000000
Si      -1.11723336      -0.27357426       2.14185009       0.00000000
Si      -0.73122552       1.71642843      -1.64003753       0.00000000
Si       2.37915450      -2.50797582       1.13491768       0.00000000
Si       0.34477785       0.90129312      -3.54173004       0.00000000
Si      -3.35051091      -0.58525083       1.40418632       0.00000000
Si      -3.51479556      -0.90018540      -0.87994620       0.00000000
Si      -0.23304474      -1.45876950      -3.48712528       0.00000000
Si      -2.89059534       0.86112198      -2.36943307       0.00000000
