10
Lattice="16.28999089631971 0.0 0.0 0.0 16.28999089631971 0.0 0.0 0.0 34.450931932916035" Properties=species:S:1:pos:R:3:initial_magmoms:R:1 pbc="T T T"
Si      -1.46062656      -0.09984141      -1.86355530       0.00000000
Si       1.73244150       1.62391752      -0.12140515       0.00000000
Si      -1.95613578       0.80997138       1.14447201       0.00000000
Si       1.01805984      -2.04713172       1.03869618       0.00000000
Si       2.04871185      -0.38884230       2.45603729       0.00000000
Si       0.95102649      -2.53371402      -1.85494256       0.00000000
Si      -0.72624078       2.37079773       2.38443099       0.00000000
Si      -3.35907945       0.79218270      -0.76133157       0.00000000
Si      -1.24352973      -2.26373985      -2.53982747       0.00000000
Si       2.60141526       1.33079526      -2.28137644       0.00000000
