10
Lattice="16.28999089631971 0.0 0.0 0.0 16.28999089631971 0.0 0.0 0.0 34.450931932916035" Properties=species:S:1:pos:R:3:initial_magmoms:R:1 pbc="T T T"
Si      -2.14262370       0.88220124       0.45495926       0.00000000
Si       1.04927148       1.86620588      -0.99701053       0.00000000
Si      -0.46231020      -1.41392313      -1.88250333       0.00000000
Si       1.19576745      -0.90114651       1.91884908       0.00000000
Si      -3.40053424      -1.02302829       0.22334552       0.00000000
Si      -0.60735636       2.74019859      -2.45028945       0.00000000
Si      -2.68962561       2.13624521      -1.51429156       0.00000000
Si       2.83244004       1.06134237      -2.27551978       0.00000000
Si      -2.83639851      -1.55981637      -2.02764518       0.00000000
Si       3.46660974       0.03971502       1.66311967       0.00000000
