10
Lattice="16.28999089631971 0.0 0.0 0.0 16.28999089631971 0.0 0.0 0.0 34.450931932916035" Properties=species:S:1:pos:R:3:initial_magmoms:R:1 pbc="T T T"
Si      -1.35840681       1.35732841       1.36508449       0.00000000
Si       1.35769005      -1.35932258       1.36456773       0.00000000
Si      -1.36658439      -1.38038153      -1.34983650       0.00000000
Si       1.36024758       1.37907556      -1.36556680       0.00000000
Si      -2.71368594       2.71280302       0.00861274       0.00000000
Si       2.71197549       2.71622392       0.00875054       0.00000000
Si      -2.71482624      -2.71547199       0.00937066       0.00000000
Si       2.71484253      -2.71631907       0.00492649       0.00000000
Si       0.00034209       2.71404106       2.72217636       0.00000000
Si      -2.71511946      -0.00128039       2.72193520       0.00000000
