10
Lattice="16.28999089631971 0.0 0.0 0.0 16.28999089631971 0.0 0.0 0.0 34.450931932916035" Properties=species:S:1:pos:R:3:initial_magmoms:R:1 pbc="T T T"
Si       1.58314365      -1.68760557      -0.20739473       0.00000000
Si      -1.42399035       0.46293085       1.88915236       0.00000000
Si       1.36573731       1.76974234      -1.07163129       0.00000000
Si      -1.56932973      -1.92877902      -0.04681884       0.00000000
Si      -2.84594445      -0.79025463      -1.65554046       0.00000000
Si       2.07275589       1.14014524       2.56215169       0.00000000
Si       3.17668032       1.46469580       0.44906815       0.00000000
Si      -0.08503380       2.05582732       3.01904021       0.00000000
Si      -2.21177475      -1.81188198       2.28309899       0.00000000
Si      -2.00370258       1.21089923      -2.91885684       0.00000000
