10
Lattice="16.28999089631971 0.0 0.0 0.0 16.28999089631971 0.0 0.0 0.0 34.450931932916035" Properties=species:S:1:pos:R:3:initial_magmoms:R:1 pbc="T T T"
Si      -1.06816788       2.05548849       0.42223086       0.00000000
Si       1.81094301      -0.30504654       1.52069944       0.00000000
Si       0.30941226      -0.18378378      -2.40433188       0.00000000
Si      -1.36573731      -1.76974234       1.07163129       0.00000000
Si      -3.20663763       1.40906871      -0.47917828       0.00000000
Si       0.21740634      -3.45734792       0.86423656       0.00000000
Si       2.45156355      -2.51868554       1.12520252       0.00000000
Si       0.70701858      -0.62959710       3.63378298       0.00000000
Si      -1.41250590       2.27563155       2.75741968       0.00000000
Si       1.94461875      -1.92626090      -2.75294106       0.00000000
