10
Lattice="16.28999089631971 0.0 0.0 0.0 16.28999089631971 0.0 0.0 0.0 34.450931932916035" Properties=species:S:1:pos:R:3:initial_magmoms:R:1 pbc="T T T"
Si       0.47151405      -1.97021427      -1.18139202       0.00000000
Si      -1.64048445      -1.25052207       1.18294231       0.00000000
Si       1.98242784       0.80649672       1.09554025       0.00000000
Si      -0.77372613       2.19985373      -0.65064066       0.00000000
Si       0.01607823      -2.26929867       2.64393825       0.00000000
Si       1.25846766      -3.21340191       0.76846292       0.00000000
Si      -3.46533912       0.36112324       0.83684806       0.00000000
Si       1.12086603       0.90930291       3.30250263       0.00000000
Si      -0.56154888       1.92417806      -3.03953852       0.00000000
Si       1.90449648      -1.36893408      -2.90831485       0.00000000
