10
Lattice="16.28999089631971 0.0 0.0 0.0 16.28999089631971 0.0 0.0 0.0 34.450931932916035" Properties=species:S:1:pos:R:3:initial_magmoms:R:1 pbc="T T T"
Si       1.04863617      -1.04148812       1.79882197       0.00000000
Si      -0.48475782       2.29143122      -0.44958491       0.00000000
Si      -2.19100500      -0.93930258       0.22224309       0.00000000
Si       2.19170547      -0.15652409      -1.00472754       0.00000000
Si       3.10029651       1.94178266      -0.48954802       0.00000000
Si       1.39375611       3.19298498      -1.58023068       0.00000000
Si      -3.26029689       0.56506589       1.93373189       0.00000000
Si       2.99315718      -2.32121979      -0.64075324       0.00000000
Si       1.08691767      -3.33512568      -1.66329192       0.00000000
Si       1.79146017      -3.23184708       1.25380792       0.00000000
