10
Lattice="16.28999089631971 0.0 0.0 0.0 16.28999089631971 0.0 0.0 0.0 34.450931932916035" Properties=species:S:1:pos:R:3:initial_magmoms:R:1 pbc="T T T"
Si      -1.35795069       1.35754344       1.35685071       0.00000000
Si      -1.35874890      -1.35671265      -1.35709187       0.00000000
Si       1.35741312      -1.35803214       1.35726412       0.00000000
Si       1.35863487       1.35697329      -1.35740193       0.00000000
Si       2.71163340       0.00218286      -2.71342582       0.00000000
Si      -2.71402803      -0.00123804      -2.71356362       0.00000000
Si      -0.00158013       2.71443528       2.71377033       0.00000000
Si      -2.71391400       0.00065160       2.71445935       0.00000000
Si       2.71472850       0.00035838       2.71439044       0.00000000
Si       0.00324171       2.71256193      -2.71673311       0.00000000
