10
Lattice="16.28999089631971 0.0 0.0 0.0 16.28999089631971 0.0 0.0 0.0 34.450931932916035" Properties=species:S:1:pos:R:3:initial_magmoms:R:1 pbc="T T T"
Si      -1.35685926       1.35513252       1.35812540       0.00000000
Si      -1.35637056      -1.35689184      -1.35691961       0.00000000
Si       1.35896067       1.35746199      -1.35654065       0.00000000
Si       1.36018242      -1.35584928       1.36095038       0.00000000
Si      -2.70303228       0.01503567       2.72159069       0.00000000
Si      -2.71233387      -2.71378368       0.00068902       0.00000000
Si      -2.71124244       2.71639008       0.00127469       0.00000000
Si      -2.71375110       0.00052128      -2.71401148       0.00000000
Si       0.00158013      -2.71443528      -2.71377033       0.00000000
Si       0.00141723       2.71536381      -2.71380478       0.00000000
