10
Lattice="16.28999089631971 0.0 0.0 0.0 16.28999089631971 0.0 0.0 0.0 34.450931932916035" Properties=species:S:1:pos:R:3:initial_magmoms:R:1 pbc="T T T"
Si       0.44632971      -1.54890207       1.80529874       0.00000000
Si      -0.36909882       2.32728714       0.78307012       0.00000000
Si      -1.68829560      -0.36437472      -1.92887431       0.00000000
Si       2.56999185       0.20735541      -0.48417367       0.00000000
Si      -1.85686452      -2.28915225      -0.29279863       0.00000000
Si       1.52068779       1.85354136      -1.91085646       0.00000000
Si      -0.02337615       0.66171609      -3.38811325       0.00000000
Si       0.28352745      -3.51681389       0.43725147       0.00000000
Si       2.58479946      -0.90248229       2.70670788       0.00000000
Si      -2.91472083       2.49665427       0.54039762       0.00000000
