10
Lattice="16.28999089631971 0.0 0.0 0.0 16.28999089631971 0.0 0.0 0.0 34.450931932916035" Properties=species:S:1:pos:R:3:initial_magmoms:R:1 pbc="T T T"
Si       1.43439966      -1.37256282      -1.30827487       0.00000000
Si      -1.04930406       1.64618595      -1.42668279       0.00000000
Si       1.03136877       0.79633665       2.09275748       0.00000000
Si      -2.56999185      -0.20735541       0.48417367       0.00000000
Si       0.01480761      -1.10983770       3.19088155       0.00000000
Si       0.13100418       3.15198468       1.61540510       0.00000000
Si      -2.12366214      -1.75625748       2.28947241       0.00000000
Si       1.39238775      -3.34910997       0.36431881       0.00000000
Si      -0.01040931      -2.47770900      -2.78263778       0.00000000
Si       2.67123420       0.18611325      -2.71773219       0.00000000
