10
Lattice="16.28999089631971 0.0 0.0 0.0 16.28999089631971 0.0 0.0 0.0 34.450931932916035" Properties=species:S:1:pos:R:3:initial_magmoms:R:1 pbc="T T T"
Si      -1.35777150      -1.35645201      -1.35774644       0.00000000
Si       1.35905841       1.35637056      -1.35660956       0.00000000
Si       1.35754344      -1.35790182       1.35726412       0.00000000
Si      -1.35798327       1.35796698       1.35716077       0.00000000
Si       2.71463076      -0.00123804      -2.71201333       0.00000000
Si      -2.71265967       0.00102627       2.71507946       0.00000000
Si      -2.71625976       0.00027693      -2.71177217       0.00000000
Si      -0.00141723      -2.71536381       2.71380478       0.00000000
Si       2.71490769       2.71445157      -0.00003445       0.00000000
Si      -2.71489140       2.71467963       0.00044786       0.00000000
