10
Lattice="16.28999089631971 0.0 0.0 0.0 16.28999089631971 0.0 0.0 0.0 34.450931932916035" Properties=species:S:1:pos:R:3:initial_magmoms:R:1 pbc="T T T"
Si      -1.48352704       1.20448260      -1.32883520       0.00000000
Si      -1.34856602      -1.34589609       1.35341251       0.00000000
Si       1.36461330       1.36925595       1.34703908       0.00000000
Si       1.39422852      -1.26011295      -1.42183554       0.00000000
Si       0.32518098       2.09600172      -2.48563303       0.00000000
Si       2.28434670       0.61077726      -2.53789822       0.00000000
Si      -2.59984197      -0.32853672      -2.69174511       0.00000000
Si      -2.69527402       2.71425609       0.00194648       0.00000000
Si       0.00412137      -2.70210375       2.70836842       0.00000000
Si       2.72808630      -2.68516215      -0.01815910       0.00000000
