10
Lattice="16.28999089631971 0.0 0.0 0.0 16.28999089631971 0.0 0.0 0.0 34.450931932916035" Properties=species:S:1:pos:R:3:initial_magmoms:R:1 pbc="T T T"
Si      -0.82122777       0.42735186       2.28861114       0.00000000
Si      -1.57496607       0.88365105      -1.69595142       0.00000000
Si       2.03537034       1.32519150      -0.58783658       0.00000000
Si       0.90036459      -2.35564803       0.47735238       0.00000000
Si      -3.07009485      -1.03205295      -0.34816131       0.00000000
Si      -0.13100418      -3.15198468      -1.61540510       0.00000000
Si      -2.59644681      -1.14841242       2.18088301       0.00000000
Si       1.88260272       0.71224767      -2.97077442       0.00000000
Si      -1.18030824      -1.50579873      -3.04208789       0.00000000
Si       3.21688404      -1.93059306       1.16764609       0.00000000
