10
Lattice="16.28999089631971 0.0 0.0 0.0 16.28999089631971 0.0 0.0 0.0 34.450931932916035" Properties=species:S:1:pos:R:3:initial_magmoms:R:1 pbc="T T T"
Si      -1.35643572       1.35777150      -1.35471475       0.00000000
Si      -1.35632169      -1.35822762       1.35850436       0.00000000
Si       1.35812988       1.35713619       1.35788424       0.00000000
Si       1.35834165      -1.35944937      -1.35888332       0.00000000
Si      -0.00819387       2.69286196      -2.71392191       0.00000000
Si      -0.01334151      -2.70203859      -2.72153902       0.00000000
Si      -2.71161711      -2.71467963       0.00093018       0.00000000
Si      -2.71309950       2.71376171       0.00006890       0.00000000
Si      -2.71422351      -0.00055386       2.71535507       0.00000000
Si       2.71608057       2.71392091       0.00048231       0.00000000
