10
Lattice="16.28999089631971 0.0 0.0 0.0 16.28999089631971 0.0 0.0 0.0 34.450931932916035" Properties=species:S:1:pos:R:3:initial_magmoms:R:1 pbc="T T T"
Si       0.48809727      -2.04858153      -1.02780968       0.00000000
Si      -1.27661472       1.13852439      -1.60872162       0.00000000
Si      -0.64244502       0.11689704       2.32991783       0.00000000
Si       1.56932973       1.92877902       0.04681884       0.00000000
Si       0.14533938       2.39170987       1.93597120       0.00000000
Si       3.15247338       0.24117345      -0.16057588       0.00000000
Si       2.42181801      -1.22696280      -2.00818040       0.00000000
Si      -3.05978328       1.94338790      -0.33021237       0.00000000
Si       0.33296760      -1.55084058      -3.35734855       0.00000000
Si       0.30933081      -3.67556157       0.64819465       0.00000000
