10
Lattice="16.28999089631971 0.0 0.0 0.0 16.28999089631971 0.0 0.0 0.0 34.450931932916035" Properties=species:S:1:pos:R:3:initial_magmoms:R:1 pbc="T T T"
Si       1.22725602      -1.14030000       1.68258446       0.00000000
Si       0.64244502      -0.11689704      -2.32991783       0.00000000
Si       0.78778440       2.27481283      -0.39394663       0.00000000
Si      -2.27084229      -0.94086153       0.25572941       0.00000000
Si       2.12551920      -2.78914122       0.19612927       0.00000000
Si      -1.28133882       3.16432665      -1.01475277       0.00000000
Si       2.21177475       1.81188198      -2.28309899       0.00000000
Si      -3.46660974      -0.03971502      -1.66311967       0.00000000
Si      -3.11300271      -0.21185145       2.38297229       0.00000000
Si      -2.41733826       1.82649086      -2.66013020       0.00000000
