10
Lattice="16.28999089631971 0.0 0.0 0.0 16.28999089631971 0.0 0.0 0.0 34.450931932916035" Properties=species:S:1:pos:R:3:initial_magmoms:R:1 pbc="T T T"
Si       0.86939730       2.00542443      -0.98825999       0.00000000
Si      -1.96310790      -0.70781257      -1.21756552       0.00000000
Si      -1.53334512      -0.63541360       1.76471552       0.00000000
Si       1.81140306      -1.60809571       0.32211639       0.00000000
Si      -0.50306778      -2.04895198      -2.53434977       0.00000000
Si       2.20792772       0.68812870      -2.54695882       0.00000000
Si       0.92090923      -3.41797987      -1.07121788       0.00000000
Si       3.52345274      -0.67516741      -1.16082480       0.00000000
Si      -3.64830840      -1.53325945       0.26261960       0.00000000
Si      -3.16855161       1.10706351       2.11332470       0.00000000
