10
Lattice="16.28999089631971 0.0 0.0 0.0 16.28999089631971 0.0 0.0 0.0 34.450931932916035" Properties=species:S:1:pos:R:3:initial_magmoms:R:1 pbc="T T T"
Si      -1.44480897      -1.10514618      -1.47436291       0.00000000
Si      -1.43439966       1.37256282       1.30827487       0.00000000
Si       1.23683454       1.55867607      -1.40945731       0.00000000
Si      -0.04201191      -1.97654715       1.67259368       0.00000000
Si      -2.30063670      -2.84376322       0.08629963       0.00000000
Si      -0.09909207      -2.37730721      -2.99826628       0.00000000
Si      -2.48370372       3.01874877      -0.11840792       0.00000000
Si       2.63322963       0.31268655      -2.95706294       0.00000000
Si      -0.40303089       2.16889947       3.40103235       0.00000000
Si       2.21794866       3.39389118      -0.05270996       0.00000000
