10
Lattice="16.28999089631971 0.0 0.0 0.0 16.28999089631971 0.0 0.0 0.0 34.450931932916035" Properties=species:S:1:pos:R:3:initial_magmoms:R:1 pbc="T T T"
Si      -2.15778969       0.91568208       0.45688851       0.00000000
Si       1.20280473       1.72467606       1.13846613       0.00000000
Si       1.10392443       0.32455056      -2.11308354       0.00000000
Si       0.30825567      -2.37743006       0.58811219       0.00000000
Si      -2.07275589      -1.14014524      -2.56215169       0.00000000
Si       1.74454497      -1.88908844      -2.50858046       0.00000000
Si      -3.49674624      -0.67721440      -0.67299933       0.00000000
Si       3.37916502       1.24444686       0.49447450       0.00000000
Si      -2.11952448       2.90522865      -0.87636330       0.00000000
Si      -0.70701858       0.62959710      -3.63378298       0.00000000
