10
Lattice="16.28999089631971 0.0 0.0 0.0 16.28999089631971 0.0 0.0 0.0 34.450931932916035" Properties=species:S:1:pos:R:3:initial_magmoms:R:1 pbc="T T T"
Si      -0.14621904      -0.19170072      -2.28578616       0.00000000
Si      -1.94217525      -1.04832666       0.83846725       0.00000000
Si       0.99448821      -2.20019256       0.00409966       0.00000000
Si       1.08390402       2.00715606       0.85359122       0.00000000
Si       2.11585501      -0.49317975      -2.61844454       0.00000000
Si       2.06423037      -1.80169029       2.08945019       0.00000000
Si      -0.63096057      -2.44540593      -2.36602243       0.00000000
Si       0.14001255       2.13701994       3.05900331       0.00000000
Si      -2.88043038       0.23460858       2.51815783       0.00000000
Si       3.41087255       1.69499079       0.43463320       0.00000000
