10
Lattice="16.28999089631971 0.0 0.0 0.0 16.28999089631971 0.0 0.0 0.0 34.450931932916035" Properties=species:S:1:pos:R:3:initial_magmoms:R:1 pbc="T T T"
Si       0.47820435      -2.29047174      -0.02452908       0.00000000
Si      -2.16158104       0.89570565      -0.40607336       0.00000000
Si       0.96447714       1.06355781       2.08355908       0.00000000
Si      -0.93216430       3.17971026      -0.55366124       0.00000000
Si       0.27659931      -2.55893094      -2.51578071       0.00000000
Si      -0.56726504       0.38638251       3.79594361       0.00000000
Si       3.27667974       0.49922334       2.06857291       0.00000000
Si      -3.63621700       0.18595035       1.53513438       0.00000000
Si       2.80850514      -2.77185753       0.34347598       0.00000000
Si       3.82117299       1.25385759      -0.22334552       0.00000000
