10
Lattice="16.28999089631971 0.0 0.0 0.0 16.28999089631971 0.0 0.0 0.0 34.450931932916035" Properties=species:S:1:pos:R:3:initial_magmoms:R:1 pbc="T T T"
Si      -0.18617841       1.08111843       2.12081575       0.00000000
Si      -0.84105270       1.83643686      -1.28632962       0.00000000
Si       2.29323194      -0.72959652      -0.53123367       0.00000000
Si      -2.14741296      -1.21349097      -0.51848682       0.00000000
Si      -1.12342356      -0.81599868       3.20967596       0.00000000
Si      -2.18958777      -2.38340619       1.60393293       0.00000000
Si       0.18356535      -0.90517014      -3.53535661       0.00000000
Si      -2.79562464       2.46273849      -0.20398408       0.00000000
Si      -1.18250739       0.98839575      -3.40344392       0.00000000
Si      -1.31422833      -2.44809378      -2.57658664       0.00000000
