10
Lattice="16.28999089631971 0.0 0.0 0.0 16.28999089631971 0.0 0.0 0.0 34.450931932916035" Properties=species:S:1:pos:R:3:initial_magmoms:R:1 pbc="T T T"
Si       1.28060041      -1.35866745       1.45294131       0.00000000
Si      -1.44607959       1.33661079       1.43426889       0.00000000
Si       1.42990755       1.40822670      -1.45710440       0.00000000
Si      -0.91455318      -2.00674881      -1.20822414       0.00000000
Si       2.79448990      -2.51607195       0.01320160       0.00000000
Si       2.65185303       2.70795742       0.08893513       0.00000000
Si       2.62134512      -0.01428633       2.81703361       0.00000000
Si      -0.09202221       2.70013659       2.81200377       0.00000000
Si      -2.78638821      -2.73953817       0.05830134       0.00000000
Si       0.94177377      -3.63902310      -1.07485590       0.00000000
