10
Lattice="16.28999089631971 0.0 0.0 0.0 16.28999089631971 0.0 0.0 0.0 34.450931932916035" Properties=species:S:1:pos:R:3:initial_magmoms:R:1 pbc="T T T"
Si       1.35765747       1.35702216       1.35798759       0.00000000
Si      -1.35793440      -1.35868374       1.35757418       0.00000000
Si      -1.35817875       1.35669636      -1.35960679       0.00000000
Si       1.35697329      -1.36251189      -1.36281073       0.00000000
Si      -2.71533123       2.71369285       0.00003445       0.00000000
Si      -0.00053757       2.71438908       2.71487276       0.00000000
Si       2.71375877      -2.71572219      -0.00034451       0.00000000
Si       2.71462599      -0.00102627       2.71494166       0.00000000
Si      -2.71570590      -0.00034209       2.71466605       0.00000000
Si       2.71629299       2.71425513       0.00144694       0.00000000
