10
Lattice="16.28999089631971 0.0 0.0 0.0 16.28999089631971 0.0 0.0 0.0 34.450931932916035" Properties=species:S:1:pos:R:3:initial_magmoms:R:1 pbc="T T T"
Si      -1.46434068      -1.64038671      -0.77349276       0.00000000
Si      -0.39695472       0.59276052       2.23455760       0.00000000
Si       2.16907281      -0.65642184      -0.62146071       0.00000000
Si      -1.22469849       1.46926026      -1.41121431       0.00000000
Si      -2.66098779       0.98091864       1.68547834       0.00000000
Si      -3.42055791      -0.81482580       0.22720402       0.00000000
Si      -0.83474847      -1.47848040      -3.09731277       0.00000000
Si      -0.38574720       0.84307266      -3.49766727       0.00000000
Si       2.65868180      -2.34105219       0.93083025       0.00000000
Si       3.42698336       1.24880769      -0.38984696       0.00000000
