10
Lattice="16.28999089631971 0.0 0.0 0.0 16.28999089631971 0.0 0.0 0.0 34.450931932916035" Properties=species:S:1:pos:R:3:initial_magmoms:R:1 pbc="T T T"
Si       1.95457194      -0.62630163      -1.08234553       0.00000000
Si       0.75311928       0.25065423       2.19143159       0.00000000
Si      -0.96246207      -1.88853228      -1.05409575       0.00000000
Si      -1.57477059       1.76322960      -0.32793860       0.00000000
Si      -0.37307358       2.67385689      -2.22249976       0.00000000
Si      -1.11871575      -0.48213513       3.45795708       0.00000000
Si       2.79562464      -2.46273849       0.20398408       0.00000000
Si       0.64821168      -3.67622946      -0.31450273       0.00000000
Si       2.60944623      -1.38162006       2.32479983       0.00000000
Si      -2.38606146      -1.99800108       2.15997956       0.00000000
