10
Lattice="16.28999089631971 0.0 0.0 0.0 16.28999089631971 0.0 0.0 0.0 34.450931932916035" Properties=species:S:1:pos:R:3:initial_magmoms:R:1 pbc="T T T"
Si       0.56666394      -2.20063239       0.37589433       0.00000000
Si       0.17260884      -0.20699703      -2.31872127       0.00000000
Si       1.95572853       1.19659824       0.64754008       0.00000000
Si      -2.29323194       0.72959652       0.53123367       0.00000000
Si       0.87697215      -1.98418716       2.70389431       0.00000000
Si      -2.10966659      -0.17557362      -3.00412294       0.00000000
Si      -0.47073213      -3.58352307      -1.26683038       0.00000000
Si       1.94406489       3.33796761      -0.14617539       0.00000000
Si       3.85418142       0.30457413      -0.45468365       0.00000000
Si       0.86082876       1.81597662      -3.35262877       0.00000000
