10
Lattice="16.28999089631971 0.0 0.0 0.0 16.28999089631971 0.0 0.0 0.0 34.450931932916035" Properties=species:S:1:pos:R:3:initial_magmoms:R:1 pbc="T T T"
Si      -1.51388948       1.15740450       1.43973970       0.00000000
Si       1.18180855      -1.56182004       1.42498780       0.00000000
Si      -1.85271613      -1.12295115      -1.08805750       0.00000000
Si       1.37575729       1.34702010      -1.80620278       0.00000000
Si       2.52750916       2.62811457      -0.09349299       0.00000000
Si      -2.79448990       2.51607195      -0.01320160       0.00000000
Si      -0.17314478       2.50178562       2.80383200       0.00000000
Si       2.54425528      -0.21367593       2.79849211       0.00000000
Si       2.51384185      -3.00350133       0.09238023       0.00000000
Si      -3.70904308       0.50932314      -1.22142575       0.00000000
