10
Lattice="16.28999089631971 0.0 0.0 0.0 16.28999089631971 0.0 0.0 0.0 34.450931932916035" Properties=species:S:1:pos:R:3:initial_magmoms:R:1 pbc="T T T"
Si       1.25791054       1.90522953       0.23161374       0.00000000
Si       0.48960898      -1.68463035       1.55229096       0.00000000
Si      -2.16907281       0.65642184       0.62146071       0.00000000
Si       0.56413573      -0.53678808      -2.25099070       0.00000000
Si      -1.12244453      -3.16211706       0.77287264       0.00000000
Si       3.40053424       1.02302829      -0.22334552       0.00000000
Si       2.93822404      -0.39089484      -2.10584884       0.00000000
Si       0.71090863       3.15927350      -1.73763708       0.00000000
Si      -0.25927001       1.46706111      -3.45098623       0.00000000
Si      -3.63341349      -0.98396487      -0.15203205       0.00000000
