10
Lattice="10.86 0.0 0.0 0.0 10.86 0.0 0.0 0.0 10.86" Properties=species:S:1:pos:R:3:initial_magmoms:R:1 pbc="T T T"
Si      -1.18910484      -1.43542050       1.46989014       0.00000000
Si       1.52589516      -1.43542050      -1.24510986       0.00000000
Si       1.52589516       1.27957950       1.46989014       0.00000000
Si      -2.51453526       2.75961288       0.12436872       0.00000000
Si      -2.54660484      -0.07792050       2.82739014       0.00000000
Si      -2.70255444      -2.69432256      -0.06858090       0.00000000
Si       0.16839516       2.63707950       2.82739014       0.00000000
Si       2.88339516      -0.07792050      -2.60260986       0.00000000
Si       2.88339516       2.63707950       0.11239014       0.00000000
Si      -0.03936750      -2.90546268      -2.68033488       0.00000000
