10
Lattice="16.28999089631971 0.0 0.0 0.0 16.28999089631971 0.0 0.0 0.0 34.56409401068381" Properties=species:S:1:pos:R:3:initial_magmoms:R:1 pbc="T T T"
Si       0.93994440       1.72798618      -1.32779566       0.00000000
Si      -1.38106198       1.29503056       1.44020365       0.00000000
Si      -1.48020292      -1.21834702      -1.45506073       0.00000000
Si       1.34929581      -1.40989810       1.42323958       0.00000000
Si       1.93607790       0.02195403      -2.89849266       0.00000000
Si      -2.69985151       2.66630647       0.02104955       0.00000000
Si      -2.67984739      -2.73544842       0.02299896       0.00000000
Si      -0.01663209       2.65902484       2.80653687       0.00000000
Si       2.76093834       2.72688898      -0.04114166       0.00000000
Si      -0.97070644       3.44724907      -1.50904987       0.00000000
