10
Lattice="16.28999089631971 0.0 0.0 0.0 16.28999089631971 0.0 0.0 0.0 34.56409401068381" Properties=species:S:1:pos:R:3:initial_magmoms:R:1 pbc="T T T"
Si      -1.35716877      -1.35836120       1.35633037       0.00000000
Si       1.35804843      -1.35703845      -1.35760924       0.00000000
Si      -1.35755973       1.35785295      -1.35736729       0.00000000
Si       1.35775521       1.35923760       1.35792032       0.00000000
Si       0.00061902      -2.71076956       2.71604803       0.00000000
Si      -2.71485882       0.00016290      -2.71349028       0.00000000
Si      -0.00172674       2.71399545      -2.71435438       0.00000000
Si      -2.71479366      -2.71431375      -0.00017282       0.00000000
Si       2.71497285      -2.71425772      -0.00010369       0.00000000
Si       2.71495656       0.00006516      -2.71487285       0.00000000
