10
Lattice="16.28999089631971 0.0 0.0 0.0 16.28999089631971 0.0 0.0 0.0 34.56409401068381" Properties=species:S:1:pos:R:3:initial_magmoms:R:1 pbc="T T T"
Si       1.33397181       0.86789862      -1.75029213       0.00000000
Si      -0.82293822       1.72271637       1.40554967       0.00000000
Si      -1.60270794      -1.02009609      -1.43344291       0.00000000
Si       1.75353705      -1.17717079       1.10708855       0.00000000
Si       0.18070497       3.49332534       0.22369894       0.00000000
Si       2.42716113      -2.43690907      -0.70445119       0.00000000
Si      -2.59714728       0.82069020      -2.44824528       0.00000000
Si      -0.22960755       1.49631795      -3.34891694       0.00000000
Si       2.14643556      -1.09411622      -2.78237656       0.00000000
Si       0.64392741      -2.58831272       2.55891957       0.00000000
