10
Lattice="16.28999089631971 0.0 0.0 0.0 16.28999089631971 0.0 0.0 0.0 34.56409401068381" Properties=species:S:1:pos:R:3:initial_magmoms:R:1 pbc="T T T"
Si      -1.56357936       0.62841933      -1.59862481       0.00000000
Si       0.81246375      -1.96201484      -1.03208442       0.00000000
Si       0.94377744       1.95206328       0.94277076       0.00000000
Si      -1.33397181      -0.86789862       1.75029213       0.00000000
Si      -1.15326684       2.62542672       1.97399108       0.00000000
Si      -2.93667975      -1.88799471       0.31684923       0.00000000
Si       0.41956524      -2.04506941       2.85738068       0.00000000
Si       1.09318932      -3.30480769       1.04584094       0.00000000
Si      -0.40589793       0.08974161      -3.66607724       0.00000000
Si       3.11598378      -1.37898108      -1.52016427       0.00000000
