10
Lattice="16.28999089631971 0.0 0.0 0.0 16.28999089631971 0.0 0.0 0.0 34.56409401068381" Properties=species:S:1:pos:R:3:initial_magmoms:R:1 pbc="T T T"
Si       1.55054736      -1.14489867      -1.30603959       0.00000000
Si      -1.70005698      -1.64103505       0.19787955       0.00000000
Si      -0.42948585       2.13498369      -0.96043302       0.00000000
Si       1.86222393       0.54936396       1.51363165       0.00000000
Si       3.31056783       0.07156197      -0.30962533       0.00000000
Si      -3.37194855      -0.30991725      -0.70911735       0.00000000
Si      -1.99791963      -0.80371276       2.85565248       0.00000000
Si       1.97156241      -1.43208322       2.77705369       0.00000000
Si      -2.27188485       2.98905210       0.39285571       0.00000000
Si      -3.53540241       1.11579984       1.24779906       0.00000000
