10
Lattice="16.28999089631971 0.0 0.0 0.0 16.28999089631971 0.0 0.0 0.0 34.56409401068381" Properties=species:S:1:pos:R:3:initial_magmoms:R:1 pbc="T T T"
Si      -1.55054736       1.14489867       1.30603959       0.00000000
Si      -0.45071172      -0.25018182      -2.29619774       0.00000000
Si       1.76002047       1.21646064       0.99641426       0.00000000
Si       0.54965718      -2.17779611       0.79058496       0.00000000
Si       0.31167657       1.69426263       2.81967124       0.00000000
Si       2.40101568      -2.28894278      -0.80250958       0.00000000
Si       1.75824486       2.85668445      -0.67479518       0.00000000
Si       1.51089750      -1.43000366      -2.80511975       0.00000000
Si      -2.29687371      -1.69561211      -2.07194577       0.00000000
Si      -3.25060434      -0.49613639       1.50391913       0.00000000
