10
Lattice="16.28999089631971 0.0 0.0 0.0 16.28999089631971 0.0 0.0 0.0 34.56409401068381" Properties=species:S:1:pos:R:3:initial_magmoms:R:1 pbc="T T T"
Si       1.00364319       1.77060897      -1.18185073       0.00000000
Si       0.82293822      -1.72271637      -1.40554967       0.00000000
Si       1.12501998      -0.27404667       2.09064496       0.00000000
Si      -2.39560740       0.26761212       0.17838539       0.00000000
Si       0.52892001      -2.56481163       2.55055505       0.00000000
Si       0.42635817       3.63889278       0.16801615       0.00000000
Si      -0.70385832       2.89193112       2.14694990       0.00000000
Si      -3.13066107       0.15473871      -2.08304085       0.00000000
Si      -0.04885371       1.10138319       3.64402534       0.00000000
Si       2.57647527      -2.89988716      -0.29846112       0.00000000
