10
Lattice="16.28999089631971 0.0 0.0 0.0 16.28999089631971 0.0 0.0 0.0 34.56409401068381" Properties=species:S:1:pos:R:3:initial_magmoms:R:1 pbc="T T T"
Si       1.70572590      -1.35432128       0.90896705       0.00000000
Si      -2.02935023       0.33109425       1.19477771       0.00000000
Si      -0.99867311      -1.11080696      -1.85789022       0.00000000
Si       1.05453315       1.98627228      -0.82387021       0.00000000
Si      -1.77646848       0.79654842      -2.97686882       0.00000000
Si       1.67065353      -3.04506431      -0.83582939       0.00000000
Si       0.31947948       1.87339887      -3.08529645       0.00000000
Si       0.84245364      -1.90663536       3.01464740       0.00000000
Si       0.85323762      -2.20064379      -2.87801546       0.00000000
Si       3.45014055       1.71866016      -1.00225559       0.00000000
