10
Lattice="16.28999089631971 0.0 0.0 0.0 16.28999089631971 0.0 0.0 0.0 34.56409401068381" Properties=species:S:1:pos:R:3:initial_magmoms:R:1 pbc="T T T"
Si      -0.39856743      -2.16927414      -1.12222763       0.00000000
Si      -1.91026314       0.57549312       1.46887112       0.00000000
Si       0.70739325       1.41323895      -2.00395816       0.00000000
Si       1.28251170       2.61374679       1.57525946       0.00000000
Si       2.93899293       0.59367276       1.77459071       0.00000000
Si      -0.62354862       1.90096155       2.98918890       0.00000000
Si       1.84689504      -1.03843863       3.09036151       0.00000000
Si      -0.37579401       3.46695183      -1.56409526       0.00000000
Si       1.07631288      -3.15457479       1.93450404       0.00000000
Si      -3.35332908       2.01362319       0.18802878       0.00000000
