10
Lattice="16.28999089631971 0.0 0.0 0.0 16.28999089631971 0.0 0.0 0.0 34.56409401068381" Properties=species:S:1:pos:R:3:initial_magmoms:R:1 pbc="T T T"
Si       1.44306594      -1.43813007       1.28084235       0.00000000
Si      -2.34080784       0.03709233      -0.58973290       0.00000000
Si       0.88777242       2.12151186      -0.74095090       0.00000000
Si      -1.60319664       0.97489134       1.53008417       0.00000000
Si      -1.17934713      -1.74320919      -2.43103235       0.00000000
Si       2.97753507       1.45332864      -1.75212403       0.00000000
Si      -0.99784395       2.93239548      -2.18344960       0.00000000
Si      -0.25832682       2.37078144       2.99985538       0.00000000
Si       2.72978046      -0.11266164       2.80116012       0.00000000
Si       3.35332908      -2.01362319      -0.18802878       0.00000000
