10
Lattice="16.28999089631971 0.0 0.0 0.0 16.28999089631971 0.0 0.0 0.0 34.56409401068381" Properties=species:S:1:pos:R:3:initial_magmoms:R:1 pbc="T T T"
Si      -1.35731538       1.35413883       1.36199889       0.00000000
Si       1.35982404      -1.36174626       1.36154955       0.00000000
Si       1.36296801       1.34757396      -1.37730042       0.00000000
Si      -1.36440153      -1.37174832      -1.37351910       0.00000000
Si       2.55098142      -0.22779936      -2.79283912       0.00000000
Si      -2.71515367       2.70966231       0.00328359       0.00000000
Si      -2.71313208      -2.71552671       0.00400944       0.00000000
Si       2.72254770       2.70658350       0.00466616       0.00000000
Si       0.00099369       2.71101438       2.71891685       0.00000000
Si      -2.71439618      -0.00350235       2.71881315       0.00000000
