10
Lattice="16.28999089631971 0.0 0.0 0.0 16.28999089631971 0.0 0.0 0.0 34.56409401068381" Properties=species:S:1:pos:R:3:initial_magmoms:R:1 pbc="T T T"
Si      -0.86327226      -0.55231408       2.10568035       0.00000000
Si      -1.70572590       1.35432128      -0.90896705       0.00000000
Si       2.27333466       0.50816981       0.63933240       0.00000000
Si      -0.03507237      -1.69074303      -1.74479644       0.00000000
Si       3.21128028      -1.23804766      -0.75785275       0.00000000
Si       0.90497466      -1.92527016       3.02218238       0.00000000
Si      -2.87598810      -1.67471367       1.68586463       0.00000000
Si      -0.65119275       3.34059356      -1.73283726       0.00000000
Si      -2.70439901       0.24351432      -2.76685727       0.00000000
Si       2.75113665      -0.47983987       2.79793041       0.00000000
