10
Lattice="16.28999089631971 0.0 0.0 0.0 16.28999089631971 0.0 0.0 0.0 34.56409401068381" Properties=species:S:1:pos:R:3:initial_magmoms:R:1 pbc="T T T"
Si       0.86327226       0.55231408      -2.10568035       0.00000000
Si      -2.01271584      -1.12239959      -0.41981572       0.00000000
Si       1.76824692      -1.37295608       0.91650203       0.00000000
Si      -0.59554611       2.00945784       1.38135479       0.00000000
Si      -2.26878975      -2.08430780       1.69706340       0.00000000
Si       3.13660692       1.06048389      -1.46634794       0.00000000
Si      -0.84245364       1.90663536      -3.01464740       0.00000000
Si       3.61440891       0.07247421       0.69225006       0.00000000
Si      -3.70445093       0.49244670      -0.40146218       0.00000000
Si      -0.85737528       1.15763745       3.58537004       0.00000000
