10
Lattice="16.28999089631971 0.0 0.0 0.0 16.28999089631971 0.0 0.0 0.0 34.56409401068381" Properties=species:S:1:pos:R:3:initial_magmoms:R:1 pbc="T T T"
Si       1.35676152       1.35646830      -1.35715991       0.00000000
Si      -1.35839052       1.35428544       1.35771294       0.00000000
Si      -1.35770634      -1.35861858      -1.35705622       0.00000000
Si       1.35361755      -1.36068741       1.36082371       0.00000000
Si       2.71362078       2.71394658       0.00103692       0.00000000
Si      -0.00079821       2.71391400      -2.71490741       0.00000000
Si       2.71448415      -0.00115659      -2.71435438       0.00000000
Si       2.71555929      -2.71463076       0.00055303       0.00000000
Si      -0.00094482      -2.71567332      -2.71466546       0.00000000
Si      -2.71454279       2.71611315      -0.00010369       0.00000000
