10
Lattice="16.28999089631971 0.0 0.0 0.0 16.28999089631971 0.0 0.0 0.0 34.56409401068381" Properties=species:S:1:pos:R:3:initial_magmoms:R:1 pbc="T T T"
Si      -1.35685926      -1.35747828      -1.35819683       0.00000000
Si       1.35788553       1.35782593      -1.35833509       0.00000000
Si      -1.35646830       1.36131409       1.35781663       0.00000000
Si       1.35806472      -1.36045935       1.35788576       0.00000000
Si      -2.71362078      -2.71394658      -0.00103692       0.00000000
Si      -2.71425609       2.71372245      -0.00190103       0.00000000
Si      -2.71441899      -0.00003258      -2.71594433       0.00000000
Si       0.00086337      -2.71510317      -2.71539131       0.00000000
Si       2.71650411       2.71424536      -0.00158995       0.00000000
Si       0.00096111       2.71504520      -2.71584064       0.00000000
