10
Lattice="16.28999089631971 0.0 0.0 0.0 16.28999089631971 0.0 0.0 0.0 34.56409401068381" Properties=species:S:1:pos:R:3:initial_magmoms:R:1 pbc="T T T"
Si       1.95647787      -0.30928357       1.24952726       0.00000000
Si      -1.05215481      -1.89680664      -0.89680048       0.00000000
Si       0.71560341       1.21410185      -1.95335630       0.00000000
Si      -1.64038671       1.03421137       1.45646261       0.00000000
Si      -2.99206575      -0.69172064      -1.47450507       0.00000000
Si       1.51470936      -3.02686023       0.94245968       0.00000000
Si       2.58515784       2.00742485       1.51052088       0.00000000
Si      -3.66568983       0.56801764       0.33703467       0.00000000
Si      -1.05331140       3.27980416       1.72419623       0.00000000
Si       2.45192193       0.05094209      -3.15898714       0.00000000
