10
Lattice="16.28999089631971 0.0 0.0 0.0 16.28999089631971 0.0 0.0 0.0 34.56409401068381" Properties=species:S:1:pos:R:3:initial_magmoms:R:1 pbc="T T T"
Si      -1.09501380      -1.65703576       1.47336242       0.00000000
Si       1.61450190       1.10921216       1.50965820       0.00000000
Si      -1.97172531       1.56914077       0.27698198       0.00000000
Si       0.16128729      -0.66591958      -2.61294328       0.00000000
Si      -2.26688382      -1.21254682      -2.64906277       0.00000000
Si      -3.33726714       0.57299423      -1.51632765       0.00000000
Si      -2.47458132      -0.25251536       2.90003077       0.00000000
Si       0.24423597       2.48095723       2.89779792       0.00000000
Si       2.79974601       2.62000867       0.09757449       0.00000000
Si       3.69173754       0.76282160      -1.18150509       0.00000000
