10
Lattice="16.28999089631971 0.0 0.0 0.0 16.28999089631971 0.0 0.0 0.0 34.56409401068381" Properties=species:S:1:pos:R:3:initial_magmoms:R:1 pbc="T T T"
Si      -1.35755973       1.35672894      -1.35743642       0.00000000
Si       1.35734796      -1.35782037      -1.35743642       0.00000000
Si      -1.35785295      -1.35679410       1.35816227       0.00000000
Si       1.35993807       1.35751086       1.35684883       0.00000000
Si       2.71148679       0.00001629       2.71262618       0.00000000
Si      -0.00268785       2.71225242      -2.71435438       0.00000000
Si       2.71471221       0.00006516      -2.71359397       0.00000000
Si       2.71454931       2.71440270      -0.00027651       0.00000000
Si       2.71443528      -2.71538010      -0.00003456       0.00000000
Si      -2.71531494       2.71466334       0.00044933       0.00000000
