10
Lattice="16.28999089631971 0.0 0.0 0.0 16.28999089631971 0.0 0.0 0.0 34.56409401068381" Properties=species:S:1:pos:R:3:initial_magmoms:R:1 pbc="T T T"
Si      -0.67012173       2.19963870      -0.39410002       0.00000000
Si       0.86584608      -0.82647315      -2.08801809       0.00000000
Si       0.60849666       0.06748947       2.34531335       0.00000000
Si      -1.32188463      -2.23042680      -0.02115324       0.00000000
Si       0.36299007      -2.25043092       2.06600075       0.00000000
Si       1.40160789       3.27000573      -0.91847218       0.00000000
Si      -1.34187246       0.76769883       3.57258132       0.00000000
Si      -1.09206531      -1.53095049      -3.46698795       0.00000000
Si      -2.38589856       2.37184029      -2.11000086       0.00000000
Si       1.53059211       0.93455730      -3.56698193       0.00000000
