10
Lattice="16.28999089631971 0.0 0.0 0.0 16.28999089631971 0.0 0.0 0.0 34.56409401068381" Properties=species:S:1:pos:R:3:initial_magmoms:R:1 pbc="T T T"
Si      -1.62668682       1.18200240       1.27178655       0.00000000
Si      -0.56018052      -2.29493520      -0.47415051       0.00000000
Si       1.63926270      -0.34326288       1.73415069       0.00000000
Si       0.46279890       1.19304702      -2.04820023       0.00000000
Si       1.26185598      -3.06426303      -1.80158528       0.00000000
Si      -0.57720357       2.30141862       3.02805828       0.00000000
Si      -3.02679603      -0.31785048       2.39684844       0.00000000
Si      -1.57982049       2.12960799      -2.87960541       0.00000000
Si       1.83563865       3.07389042      -1.64172625       0.00000000
Si       1.53802035      -2.56274280       2.64539898       0.00000000
