10
Lattice="16.28999089631971 0.0 0.0 0.0 16.28999089631971 0.0 0.0 0.0 34.56409401068381" Properties=species:S:1:pos:R:3:initial_magmoms:R:1 pbc="T T T"
Si       1.07584047       0.49376619       2.06444536       0.00000000
Si       0.10124235       2.21947992      -0.91124828       0.00000000
Si       1.64006091      -1.45854144      -1.03961940       0.00000000
Si      -2.24933949      -0.75937464       0.79487091       0.00000000
Si      -1.86184926      -1.31452155      -1.40686310       0.00000000
Si       2.43183636       2.40284016      -1.01960678       0.00000000
Si      -0.31390830       2.23694280       2.86996202       0.00000000
Si       2.91990105       1.91884797       1.37931551       0.00000000
Si      -2.09820087       0.26780760      -3.11954948       0.00000000
Si       1.83174534      -0.62980398      -3.27318697       0.00000000
