10
Lattice="16.28999089631971 0.0 0.0 0.0 16.28999089631971 0.0 0.0 0.0 34.56409401068381" Properties=species:S:1:pos:R:3:initial_magmoms:R:1 pbc="T T T"
Si      -1.35461124      -1.35689184       1.35712535       0.00000000
Si       1.35715248      -1.35720135      -1.35674514       0.00000000
Si       1.35685926       1.35694071       1.35792032       0.00000000
Si      -1.35731538       1.35702216      -1.35764381       0.00000000
Si       0.00000000       2.71249677      -2.71438895       0.00000000
Si       2.71406061      -0.00016290      -2.71311008       0.00000000
Si      -0.00306252      -2.71438641       2.71290269       0.00000000
Si       0.00016290      -2.71433754      -2.71331746       0.00000000
Si      -2.71454931      -2.71440270       0.00027651       0.00000000
Si      -2.71476108       2.71526607       0.00017282       0.00000000
