10
Lattice="16.28999089631971 0.0 0.0 0.0 16.28999089631971 0.0 0.0 0.0 34.56409401068381" Properties=species:S:1:pos:R:3:initial_magmoms:R:1 pbc="T T T"
Si       2.07759402       1.02003093      -0.40474577       0.00000000
Si      -1.43853732       1.88693586       0.16614969       0.00000000
Si      -0.78591105      -1.21863861      -1.89456274       0.00000000
Si       0.09910836      -1.06608276       2.13716826       0.00000000
Si      -1.27373139      -2.94692616       1.73069428       0.00000000
Si      -2.26090539       1.61373627       2.37272269       0.00000000
Si       2.09334645       2.77909029       1.19557268       0.00000000
Si       2.37884499      -1.72310733       2.36639745       0.00000000
Si      -3.15174033      -1.56763557      -1.43541306       0.00000000
Si      -0.78351642       0.43289046       3.71301531       0.00000000
