10
Lattice="16.28999089631971 0.0 0.0 0.0 16.28999089631971 0.0 0.0 0.0 34.56409401068381" Properties=species:S:1:pos:R:3:initial_magmoms:R:1 pbc="T T T"
Si       1.44472752       1.46119671       1.10764158       0.00000000
Si      -0.18904545      -2.05641702       1.12115614       0.00000000
Si      -2.34380520       0.47498382       0.00687826       0.00000000
Si       1.34117199       0.21502800      -1.97278133       0.00000000
Si      -2.50830162      -1.33783254      -1.50350437       0.00000000
Si       3.02687748       1.10793177      -0.63483907       0.00000000
Si      -1.23852870      -3.17583324      -0.63511558       0.00000000
Si      -0.13621698       1.39587381      -3.31307395       0.00000000
Si      -1.26618912      -1.41889158       3.10866179       0.00000000
Si      -2.99138157      -0.02985957       2.23823372       0.00000000
