10
Lattice="16.28999089631971 0.0 0.0 0.0 16.28999089631971 0.0 0.0 0.0 34.56409401068381" Properties=species:S:1:pos:R:3:initial_magmoms:R:1 pbc="T T T"
Si      -1.41309234       1.31323464      -1.37019058       0.00000000
Si       1.30469868      -1.40232465      -1.39386700       0.00000000
Si      -1.15439085      -1.41721371       1.55248171       0.00000000
Si       1.51016445       1.21433805       1.43686476       0.00000000
Si       2.07402651      -0.75909771       2.79457769       0.00000000
Si      -2.63031372      -2.65781124       0.17282057       0.00000000
Si       2.70244584       2.67807002      -0.00138256       0.00000000
Si      -2.81479797       2.56274280       0.17579308       0.00000000
Si      -1.97040582       0.06120153       3.26959230       0.00000000
Si       2.66582592      -0.05204655      -2.74822721       0.00000000
