10
Lattice="16.28999089631971 0.0 0.0 0.0 16.28999089631971 0.0 0.0 0.0 34.56409401068381" Properties=species:S:1:pos:R:3:initial_magmoms:R:1 pbc="T T T"
Si       1.34798121      -1.35110661       1.39242567       0.00000000
Si       1.18524411       1.51079650      -1.41208371       0.00000000
Si      -1.37026593       1.37174506       1.38813972       0.00000000
Si      -1.61450190      -1.10921216      -1.50965820       0.00000000
Si       2.07723564      -0.34639056      -2.69116329       0.00000000
Si      -2.81564505       2.57606476      -0.07681874       0.00000000
Si      -3.58622721       0.45992860      -1.23267622       0.00000000
Si       2.75281452      -2.66524992      -0.02589543       0.00000000
Si      -0.01412343      -2.70125082       2.75712402       0.00000000
Si       2.70154989       0.01641869       2.75871397       0.00000000
