10
Lattice="16.28999089631971 0.0 0.0 0.0 16.28999089631971 0.0 0.0 0.0 34.56409401068381" Properties=species:S:1:pos:R:3:initial_magmoms:R:1 pbc="T T T"
Si       1.36598166       1.35211887       1.34181344       0.00000000
Si       1.35488817      -1.35755810      -1.35729817       0.00000000
Si      -1.35896067       1.35896067      -1.35705622       0.00000000
Si      -1.37650500      -1.35399222       1.37506412       0.00000000
Si      -0.04846275       2.61151506       2.68079263       0.00000000
Si       2.70508482      -0.01917333       2.69748710       0.00000000
Si       2.71196209       2.71466334      -0.00314533       0.00000000
Si      -2.71870326      -2.70942975       0.00041477       0.00000000
Si       2.71323178       0.00029322      -2.71504567       0.00000000
Si      -0.00162900      -2.71402275      -2.71528761       0.00000000
