10
Lattice="16.28999089631971 0.0 0.0 0.0 16.28999089631971 0.0 0.0 0.0 34.56409401068381" Properties=species:S:1:pos:R:3:initial_magmoms:R:1 pbc="T T T"
Si      -1.34219826      -1.35543753      -1.37464935       0.00000000
Si       1.37650500       1.35399222      -1.37506412       0.00000000
Si       1.41149592      -1.34499701       1.37309397       0.00000000
Si      -1.29461517       1.49999949       1.40572249       0.00000000
Si       2.33665389       0.42344226       2.60661804       0.00000000
Si       0.66329622       2.20447683       2.78469235       0.00000000
Si      -2.68265349       2.72070693      -0.03321611       0.00000000
Si      -2.70404226      -2.70983240       0.00428595       0.00000000
Si      -2.69698869      -0.00365059      -2.73333008       0.00000000
Si       0.01754433       2.71295289      -2.73212034       0.00000000
