10
Lattice="16.28999089631971 0.0 0.0 0.0 16.28999089631971 0.0 0.0 0.0 34.56409401068381" Properties=species:S:1:pos:R:3:initial_magmoms:R:1 pbc="T T T"
Si       1.37256349      -1.36122498      -1.32833344       0.00000000
Si      -1.33910316       1.37129220      -1.35567365       0.00000000
Si      -1.74493593      -0.91137663       1.28419507       0.00000000
Si       1.43050213       1.34156295       1.41578065       0.00000000
Si      -0.25168050       2.28846807       2.76813614       0.00000000
Si       2.12981066      -0.30768552       2.93314522       0.00000000
Si      -2.67009390      -2.67981590       0.05067099       0.00000000
Si      -2.75354757       2.63068839      -0.01669447       0.00000000
Si       0.01083337      -2.69598560      -2.69752166       0.00000000
Si      -3.41829360       0.86965794       1.46226938       0.00000000
