10
Lattice="16.28999089631971 0.0 0.0 0.0 16.28999089631971 0.0 0.0 0.0 34.56409401068381" Properties=species:S:1:pos:R:3:initial_magmoms:R:1 pbc="T T T"
Si       0.92515797       1.76843927       1.23352408       0.00000000
Si       1.32998076      -1.37702030      -1.37063991       0.00000000
Si      -1.19228139      -1.46373197       1.43824732       0.00000000
Si      -1.41149592       1.34499701      -1.37309397       0.00000000
Si      -1.55141073       0.21084812       3.18145381       0.00000000
Si       2.67009390       2.67981590      -0.05067099       0.00000000
Si      -2.70244584      -2.67807002       0.00138256       0.00000000
Si       2.59160868      -2.79117149       0.16303892       0.00000000
Si       2.68092727      -0.01616970      -2.74819265       0.00000000
Si      -0.03499092       2.69898923      -2.74815809       0.00000000
