10
Lattice="16.28999089631971 0.0 0.0 0.0 16.28999089631971 0.0 0.0 0.0 34.56409401068381" Properties=species:S:1:pos:R:3:initial_magmoms:R:1 pbc="T T T"
Si       0.66474603       1.76103045      -1.47896385       0.00000000
Si      -0.86584608       0.82647315       2.08801809       0.00000000
Si       1.67335767      -1.78103457      -0.17807431       0.00000000
Si      -1.95791139      -0.70447734      -1.37896987       0.00000000
Si      -2.18773071      -1.40395365       2.06686485       0.00000000
Si       2.07919044       0.50163426      -2.81794303       0.00000000
Si      -0.66329622      -2.20447683      -2.78469235       0.00000000
Si       2.13019443       3.00405519      -0.13711584       0.00000000
Si       3.16661310       1.41881013       1.30586677       0.00000000
Si      -1.53596781       3.02611185       1.69391807       0.00000000
