10
Lattice="16.28999089631971 0.0 0.0 0.0 16.28999089631971 0.0 0.0 0.0 34.56409401068381" Properties=species:S:1:pos:R:3:initial_magmoms:R:1 pbc="T T T"
Si       0.60609781       0.61968789       2.24048039       0.00000000
Si       0.16995357       2.13076458      -1.22191053       0.00000000
Si      -1.76319702      -1.87516308       0.42061070       0.00000000
Si       2.55144473      -0.46538901      -1.05690146       0.00000000
Si      -1.32330186      -1.06908012      -2.70585161       0.00000000
Si       1.85213620       1.18385946      -2.57426603       0.00000000
Si       2.70204578       1.69653834       2.13205277       0.00000000
Si       1.38389319      -1.28766749       3.35945899       0.00000000
Si      -1.30246695       1.61751555       3.32721068       0.00000000
Si      -3.49951554      -0.71200332       1.62624153       0.00000000
