10
Lattice="16.28999089631971 0.0 0.0 0.0 16.28999089631971 0.0 0.0 0.0 34.56409401068381" Properties=species:S:1:pos:R:3:initial_magmoms:R:1 pbc="T T T"
Si      -1.35438318       1.34894232       1.34889909       0.00000000
Si       1.35180936       1.36060596      -1.36158412       0.00000000
Si      -1.35959598      -1.35716877      -1.36099653       0.00000000
Si       1.33696917      -1.37508777       1.40866044       0.00000000
Si      -2.65427142      -0.03345966       2.74864198       0.00000000
Si      -2.71801419       2.71099809      -0.01230482       0.00000000
Si       2.71080261       0.00358380      -2.72161285       0.00000000
Si       2.71533123       2.71915938       0.01316893       0.00000000
Si      -0.00412137      -2.71401500      -2.72320280       0.00000000
Si      -0.00353493       2.71779102      -2.72244239       0.00000000
