10
Lattice="16.28999089631971 0.0 0.0 0.0 16.28999089631971 0.0 0.0 0.0 34.56409401068381" Properties=species:S:1:pos:R:3:initial_magmoms:R:1 pbc="T T T"
Si      -1.95647787       0.30928357      -1.24952726       0.00000000
Si      -0.16679331      -0.51498554       2.29720010       0.00000000
Si       2.07506907      -0.76735415      -0.86908007       0.00000000
Si       0.62867997       2.31670841       0.26099362       0.00000000
Si      -0.44176851      -2.71757666      -0.30706758       0.00000000
Si       1.77921009       0.64433955       3.00140934       0.00000000
Si       1.36765953      -1.46459873      -3.11505615       0.00000000
Si      -1.24087446       1.52338541      -3.20288356       0.00000000
Si       3.07682492      -2.11888658       0.85712088       0.00000000
Si      -3.59686458       1.34349494       0.20693535       0.00000000
