10
Lattice="16.28999089631971 0.0 0.0 0.0 16.28999089631971 0.0 0.0 0.0 34.56409401068381" Properties=species:S:1:pos:R:3:initial_magmoms:R:1 pbc="T T T"
Si       1.35611281      -1.35790182       1.35494781       0.00000000
Si      -1.35500220       1.35783666       1.35671058       0.00000000
Si      -1.35751086      -1.35687555      -1.35709078       0.00000000
Si       1.35753810       1.35760860      -1.35664145       0.00000000
Si      -0.01322748       2.71471221       2.70467643       0.00000000
Si       0.01013238      -2.72044629       2.69990658       0.00000000
Si       2.71599490      -0.00571779       2.71041407       0.00000000
Si       2.71308225      -2.71410948       0.00044933       0.00000000
Si      -2.71480995      -2.71360449       0.00103692       0.00000000
Si      -0.00004887      -2.71471221      -2.71407787       0.00000000
