10
Lattice="16.28999089631971 0.0 0.0 0.0 16.28999089631971 0.0 0.0 0.0 34.56409401068381" Properties=species:S:1:pos:R:3:initial_magmoms:R:1 pbc="T T T"
Si      -1.53678231       1.62261432      -0.68685806       0.00000000
Si      -0.32607693      -1.95717834      -1.33967047       0.00000000
Si       1.66414797       1.26183969      -1.23269454       0.00000000
Si      -0.71935011      -0.58168332       2.25769332       0.00000000
Si      -0.04895145       2.50058016      -2.31185528       0.00000000
Si      -0.65357109      -3.49337421       0.42323757       0.00000000
Si       1.23683454      -1.49938047       3.10841984       0.00000000
Si      -2.18413062      -2.34927864       1.81071020       0.00000000
Si      -1.43852103       3.26013399       1.02600114       0.00000000
Si      -3.72860181       0.97311573      -1.27320368       0.00000000
