10
Lattice="16.28999089631971 0.0 0.0 0.0 16.28999089631971 0.0 0.0 0.0 34.56409401068381" Properties=species:S:1:pos:R:3:initial_magmoms:R:1 pbc="T T T"
Si      -1.95618465       0.91769715      -0.85072652       0.00000000
Si       0.18154578      -1.02376134       2.09026475       0.00000000
Si       0.09277155      -1.92107970      -1.36317407       0.00000000
Si       1.40802519       1.89473877      -0.05353981       0.00000000
Si      -1.58718357      -2.53531044       1.95480799       0.00000000
Si      -1.23683454       1.49938047      -3.10841984       0.00000000
Si       2.36902931      -2.14935147       1.83805042       0.00000000
Si      -2.82087414       2.18274597       0.95587055       0.00000000
Si      -0.73987551      -3.66636261       0.05523345       0.00000000
Si      -3.42096516      -0.84989817      -1.29770963       0.00000000
