10
Lattice="16.28999089631971 0.0 0.0 0.0 16.28999089631971 0.0 0.0 0.0 34.56409401068381" Properties=species:S:1:pos:R:3:initial_magmoms:R:1 pbc="T T T"
Si      -0.34440318      -2.26935990      -0.45648824       0.00000000
Si       0.16156422      -0.09047466       2.37355223       0.00000000
Si      -2.03522373       1.23333219       0.11022496       0.00000000
Si       1.60756629       0.77605560      -1.76048855       0.00000000
Si      -1.84063968       2.55368556      -1.79318620       0.00000000
Si      -1.73397276      -1.50980607       2.88136818       0.00000000
Si      -0.30354786       2.11255236       3.05308269       0.00000000
Si       1.36869624      -3.50810037       0.62267250       0.00000000
Si      -1.83223404      -3.14732574       1.16850898       0.00000000
Si      -0.08439849      -2.68449426      -2.77618958       0.00000000
