10
Lattice="16.28999089631971 0.0 0.0 0.0 16.28999089631971 0.0 0.0 0.0 34.56409401068381" Properties=species:S:1:pos:R:3:initial_magmoms:R:1 pbc="T T T"
Si      -1.34873055      -1.34377839       1.37752854       0.00000000
Si       1.36440153       1.37174832       1.37351910       0.00000000
Si       1.25200053      -1.50967575      -1.36127650       0.00000000
Si      -1.40051157       1.36063854      -1.37401683       0.00000000
Si      -2.71313071      -2.71023246      -0.01035541       0.00000000
Si      -2.70705144       2.73134430       0.02022346       0.00000000
Si       0.00918756      -2.70438435       2.73479214       0.00000000
Si      -2.70846397       0.01073511       2.73541430       0.00000000
Si       2.72736954       2.71932228      -0.00378131       0.00000000
Si       2.72422557       0.01000206       2.73506866       0.00000000
