10
Lattice="16.28999089631971 0.0 0.0 0.0 16.28999089631971 0.0 0.0 0.0 34.56409401068381" Properties=species:S:1:pos:R:3:initial_magmoms:R:1 pbc="T T T"
Si      -1.35672900      -1.35708732       1.35709078       0.00000000
Si       1.35973342      -1.35451350      -1.35788576       0.00000000
Si       1.35846932       1.35751086       1.35691796       0.00000000
Si      -1.35860235       1.35962856      -1.35505150       0.00000000
Si      -2.71256199       2.71446786       0.00041477       0.00000000
Si      -2.71358826      -0.00032580       2.71470002       0.00000000
Si       0.00181649       2.71445157       2.71487285       0.00000000
Si      -2.71458195      -2.71557558       0.00110605       0.00000000
Si       2.71555012       2.71515204       0.00010369       0.00000000
Si       0.00167246      -2.71586880       2.71490741       0.00000000
