10
Lattice="16.28999089631971 0.0 0.0 0.0 16.28999089631971 0.0 0.0 0.0 34.28971787722196" Properties=species:S:1:pos:R:3:initial_magmoms:R:1 pbc="T T T"
Si      -1.36787881      -1.33823150      -1.38458529       0.00000000
Si       1.35284540       1.37608635      -1.38657410       0.00000000
Si      -1.41981752       1.15685553       1.56769249       0.00000000
Si       1.35458843      -1.47973703       1.44699261       0.00000000
Si       2.70374252      -2.70502196      -0.03024355       0.00000000
Si       2.69944196       2.72067924      -0.00569210       0.00000000
Si      -2.72775791      -2.69826161       0.00414906       0.00000000
Si      -0.00908656      -2.70145445      -2.74554496       0.00000000
Si      -2.72399492       2.72600607       0.01539609       0.00000000
Si       2.70616973       0.01476363      -2.74715657       0.00000000
