10
Lattice="16.28999089631971 0.0 0.0 0.0 16.28999089631971 0.0 0.0 0.0 34.28971787722196" Properties=species:S:1:pos:R:3:initial_magmoms:R:1 pbc="T T T"
Si      -0.69512688      -0.52997886      -2.15027512       0.00000000
Si      -2.05041415      -0.10287135       1.16550816       0.00000000
Si       1.84049307      -0.49195800       1.39771826       0.00000000
Si       0.37349712       2.32066430      -0.64961907       0.00000000
Si       1.77036462       1.74250939       2.22053479       0.00000000
Si       1.18899081       0.62182188      -3.11484542       0.00000000
Si      -3.01973336       1.73196650       0.11538497       0.00000000
Si      -2.73180761       0.78844791      -2.04236532       0.00000000
Si      -0.81011799      -2.84218146      -1.92725467       0.00000000
Si      -1.33496387       3.30404273       0.51760358       0.00000000
