10
Lattice="16.28999089631971 0.0 0.0 0.0 16.28999089631971 0.0 0.0 0.0 34.28971787722196" Properties=species:S:1:pos:R:3:initial_magmoms:R:1 pbc="T T T"
Si      -0.59044734       1.49788179       1.76633293       0.00000000
Si       1.81149687      -1.56410064      -0.13294131       0.00000000
Si      -1.80069008      -1.24553340      -0.98644716       0.00000000
Si       1.41452586       0.80751159      -1.76557856       0.00000000
Si      -0.00791694      -3.04320006      -1.04233943       0.00000000
Si       3.41003457       0.46553562      -0.44014306       0.00000000
Si      -1.90855595       0.06242328       3.14187058       0.00000000
Si       2.69208540      -1.88911872       1.97131977       0.00000000
Si      -1.46105010       3.50028117       0.91882779       0.00000000
Si       1.40480073      -0.39561894      -3.81116711       0.00000000
