10
Lattice="16.28999089631971 0.0 0.0 0.0 16.28999089631971 0.0 0.0 0.0 34.28971787722196" Properties=species:S:1:pos:R:3:initial_magmoms:R:1 pbc="T T T"
Si      -1.78281018      -0.76831296      -1.40174186       0.00000000
Si      -1.35550719       1.33185574       1.45802705       0.00000000
Si       1.34581464      -1.36797460       1.45005469       0.00000000
Si       0.83046420       2.02453912      -1.14378973       0.00000000
Si      -1.26195372       0.53877709      -3.43412886       0.00000000
Si      -2.58369174      -2.65618780      -0.05475042       0.00000000
Si       2.63142144      -2.73890842       0.03909030       0.00000000
Si      -2.73885399       2.69019739       0.10363387       0.00000000
Si       2.82152574       2.67542236       0.01431939       0.00000000
Si       0.00081450       2.68962724       2.81584234       0.00000000
