10
Lattice="16.28999089631971 0.0 0.0 0.0 16.28999089631971 0.0 0.0 0.0 34.28971787722196" Properties=species:S:1:pos:R:3:initial_magmoms:R:1 pbc="T T T"
Si       0.74688021       1.97866159      -1.15450116       0.00000000
Si       1.62065952      -1.80349263      -0.30380707       0.00000000
Si       1.41395571      -0.50027404       2.05206931       0.00000000
Si      -2.03581017      -0.96043626      -1.20048369       0.00000000
Si      -0.63978975      -1.72152135       2.34154327       0.00000000
Si       2.04406920       0.56063012      -2.65982061       0.00000000
Si      -0.68665608      -2.18572119      -2.67771986       0.00000000
Si       3.45009168      -0.81431493      -1.34844391       0.00000000
Si       0.47513043      -3.64592421      -1.18724786       0.00000000
Si       1.54251639       3.80130082       0.28601070       0.00000000
