10
Lattice="16.28999089631971 0.0 0.0 0.0 16.28999089631971 0.0 0.0 0.0 34.28971787722196" Properties=species:S:1:pos:R:3:initial_magmoms:R:1 pbc="T T T"
Si      -1.35540945       1.35858600      -1.35722208       0.00000000
Si      -1.35700587      -1.35738054       1.35746211       0.00000000
Si       1.35785295       1.35783666       1.35735924       0.00000000
Si       1.35843939      -1.35959598      -1.35900515       0.00000000
Si      -0.00570150       2.69729820      -2.72179931       0.00000000
Si      -2.71277370      -2.71489140       0.00017145       0.00000000
Si      -2.71520091       2.71326240      -0.00109727       0.00000000
Si       2.71406061      -2.71454931      -0.00041148       0.00000000
Si       0.00048870      -2.71433754       2.71454703       0.00000000
Si      -2.71391400       0.00006516       2.71502709       0.00000000
