10
Lattice="16.28999089631971 0.0 0.0 0.0 16.28999089631971 0.0 0.0 0.0 34.28971787722196" Properties=species:S:1:pos:R:3:initial_magmoms:R:1 pbc="T T T"
Si       0.92877435       1.81169235      -1.23473914       0.00000000
Si      -1.92116115      -0.97484247      -1.08180691       0.00000000
Si      -2.08057509       0.76201362       1.00945557       0.00000000
Si       1.85332959      -1.67360202       0.28213596       0.00000000
Si      -0.27279234       0.94843638       2.59830482       0.00000000
Si       1.57762134      -0.66577230       2.58524043       0.00000000
Si      -0.38014344      -2.23492284      -2.65704314       0.00000000
Si       2.34999540       0.49850658      -2.66002635       0.00000000
Si       2.12788125       3.09149991       0.40605907       0.00000000
Si       1.05769341      -3.49624125      -1.15837590       0.00000000
