10
Lattice="16.28999089631971 0.0 0.0 0.0 16.28999089631971 0.0 0.0 0.0 34.28971787722196" Properties=species:S:1:pos:R:3:initial_magmoms:R:1 pbc="T T T"
Si      -1.80778275      -0.18642276      -1.58884926       0.00000000
Si       1.85041368      -1.61420868      -0.01306439       0.00000000
Si       1.10196963       2.22988923      -0.02180827       0.00000000
Si      -1.02758949      -1.02607452       2.02014557       0.00000000
Si       0.27279234      -0.94843638      -2.59830482       0.00000000
Si       0.62001369      -2.69197137       1.73506069       0.00000000
Si       3.82451733      -0.31700340       0.58477718       0.00000000
Si       2.40067359       2.14306353      -2.19224576       0.00000000
Si      -2.72440150       1.87796007      -2.36942083       0.00000000
Si       2.12612193      -2.62203840      -2.31616887       0.00000000
