10
Lattice="16.28999089631971 0.0 0.0 0.0 16.28999089631971 0.0 0.0 0.0 34.28971787722196" Properties=species:S:1:pos:R:3:initial_magmoms:R:1 pbc="T T T"
Si       0.40928625       0.12531897      -2.28373078       0.00000000
Si      -0.77353065      -2.14618211       0.68390881       0.00000000
Si       2.04159312       0.93840174       0.80313422       0.00000000
Si      -1.97467380       1.28045916      -0.42440408       0.00000000
Si      -1.06847739      -1.58523529      -2.98495590       0.00000000
Si      -1.56338388       2.99149560       1.13241857       0.00000000
Si       0.72791865       2.43219474      -2.58568620       0.00000000
Si      -1.36528119       0.05095512       3.37901356       0.00000000
Si       2.39725269       2.62231533      -0.92774313       0.00000000
Si      -1.10827386      -3.29391035      -1.37018360       0.00000000
