10
Lattice="16.28999089631971 0.0 0.0 0.0 16.28999089631971 0.0 0.0 0.0 34.28971787722196" Properties=species:S:1:pos:R:3:initial_magmoms:R:1 pbc="T T T"
Si       1.34094393       1.11210201       1.60794864       0.00000000
Si      -1.14715809       1.42855155      -1.50888559       0.00000000
Si      -1.34229600      -1.40853114       1.55767988       0.00000000
Si       1.57861503      -1.27899306      -1.50312491       0.00000000
Si      -2.15267463       1.06376958       2.17115757       0.00000000
Si       0.55239390      -2.32816680       2.63502913       0.00000000
Si      -2.54140290      -2.68833870      -0.08311832       0.00000000
Si      -2.68423362       2.66913279      -0.03950178       0.00000000
Si      -2.48300325       0.06599079      -2.88565282       0.00000000
Si       2.83983570       2.59537167       0.01731632       0.00000000
