10
Lattice="16.28999089631971 0.0 0.0 0.0 16.28999089631971 0.0 0.0 0.0 34.28971787722196" Properties=species:S:1:pos:R:3:initial_magmoms:R:1 pbc="T T T"
Si       1.32263397       0.55557045       1.83768988       0.00000000
Si      -0.42572286       1.51979184      -1.80665767       0.00000000
Si      -1.61161857      -1.56704913       0.84688793       0.00000000
Si       1.55113380      -1.13195952      -1.46393174       0.00000000
Si      -2.94080112       1.70080632      -0.77045610       0.00000000
Si       1.13608089       0.31255623      -3.36094287       0.00000000
Si       2.54291787       2.33336331       1.01411897       0.00000000
Si      -2.35753767       0.26422380      -2.79773393       0.00000000
Si      -0.31014531      -3.47436378       1.33054467       0.00000000
Si       3.04378650      -1.10910465       1.90870392       0.00000000
