10
Lattice="16.28999089631971 0.0 0.0 0.0 16.28999089631971 0.0 0.0 0.0 34.28971787722196" Properties=species:S:1:pos:R:3:initial_magmoms:R:1 pbc="T T T"
Si      -1.70846099       0.98337843       1.16722265       0.00000000
Si       1.93355784       0.79949691       1.00657523       0.00000000
Si      -0.12124647       0.49513455      -2.28441657       0.00000000
Si      -0.37349712      -2.32066430       0.64961907       0.00000000
Si       0.81549369      -1.69884242      -2.46522635       0.00000000
Si       1.39686750      -0.57815491       2.87015386       0.00000000
Si      -0.81190989       0.34523397       3.27593861       0.00000000
Si      -1.06862400      -2.85064316      -1.50065605       0.00000000
Si       2.95933914      -1.42216098      -1.22284060       0.00000000
Si      -3.39323048      -0.58869779       0.76500403       0.00000000
