10
Lattice="16.28999089631971 0.0 0.0 0.0 16.28999089631971 0.0 0.0 0.0 34.28971787722196" Properties=species:S:1:pos:R:3:initial_magmoms:R:1 pbc="T T T"
Si       2.07935334      -1.04501979      -0.27136898       0.00000000
Si       0.26759583       2.04595884       1.11297628       0.00000000
Si      -1.26783441      -1.20894606       1.57725932       0.00000000
Si      -0.64130472      -0.11942199      -2.29874968       0.00000000
Si      -0.11401371       3.49770313      -0.74587036       0.00000000
Si      -0.25557381      -3.37007520       1.35602194       0.00000000
Si      -1.60635690       2.10724182       2.52430757       0.00000000
Si      -2.70695817      -1.16664093      -2.23397637       0.00000000
Si       2.26530369       1.77402987       2.43909758       0.00000000
Si       1.84482621      -2.85845517      -1.76976191       0.00000000
