10
Lattice="16.28999089631971 0.0 0.0 0.0 16.28999089631971 0.0 0.0 0.0 34.28971787722196" Properties=species:S:1:pos:R:3:initial_magmoms:R:1 pbc="T T T"
Si       1.48393755      -1.29860622      -1.28100971       0.00000000
Si      -1.35127179      -1.36256076       1.37420236       0.00000000
Si       1.36679616       1.35835794       1.37485386       0.00000000
Si      -1.42553790       1.38797316      -1.38598088       0.00000000
Si       2.60112204       0.07131762      -2.76657283       0.00000000
Si      -2.68679115      -2.71593396      -0.01043780       0.00000000
Si       2.71635750       2.69768916       0.00688881       0.00000000
Si      -2.71630863       2.71746522       0.02778497       0.00000000
Si      -2.70446580      -0.00438201       2.73142444       0.00000000
Si       0.00864999       2.70966231       2.73207595       0.00000000
