10
Lattice="16.28999089631971 0.0 0.0 0.0 16.28999089631971 0.0 0.0 0.0 34.28971787722196" Properties=species:S:1:pos:R:3:initial_magmoms:R:1 pbc="T T T"
Si       1.35656604       1.35682668       1.35567904       0.00000000
Si      -1.35726651       1.35775521      -1.35708492       0.00000000
Si       1.35829278      -1.35772263      -1.35742782       0.00000000
Si      -1.35689184      -1.35987291       1.35677632       0.00000000
Si      -0.00198738      -2.71073745       2.71314115       0.00000000
Si       0.00087966       2.71295289       2.71571288       0.00000000
Si      -2.71463076      -2.71441899       0.00010287       0.00000000
Si      -0.00105885      -2.71463076      -2.71485564       0.00000000
Si      -2.71511946      -0.00008145      -2.71444416       0.00000000
Si      -2.71454931       2.71505430       0.00010287       0.00000000
