10
Lattice="16.28999089631971 0.0 0.0 0.0 16.28999089631971 0.0 0.0 0.0 34.28971787722196" Properties=species:S:1:pos:R:3:initial_magmoms:R:1 pbc="T T T"
Si       1.35296595       1.34913780       1.35746211       0.00000000
Si      -1.35949824       1.35466011      -1.36113111       0.00000000
Si       1.35624024      -1.35941679      -1.36030816       0.00000000
Si      -1.37547873      -1.36409202       1.39391210       0.00000000
Si      -2.71518462       2.71078632      -0.00109727       0.00000000
Si       2.71643895       2.70961344       0.00116585       0.00000000
Si      -0.00045612       2.71267596      -2.71691302       0.00000000
Si       2.71595025      -2.71476108       0.00346326       0.00000000
Si      -2.71805166      -2.71290402      -0.00366900       0.00000000
Si       2.71443528      -0.00172674      -2.71657013       0.00000000
