10
Lattice="16.28999089631971 0.0 0.0 0.0 16.28999089631971 0.0 0.0 0.0 34.28971787722196" Properties=species:S:1:pos:R:3:initial_magmoms:R:1 pbc="T T T"
Si       1.35754344      -1.35708732      -1.35698205       0.00000000
Si      -1.35904212      -1.35801585       1.35578191       0.00000000
Si       1.35619137       1.35746199       1.35927947       0.00000000
Si      -1.35791811       1.35847197      -1.35694776       0.00000000
Si      -0.00053757      -2.71305063      -2.71554144       0.00000000
Si      -0.00141723       2.71464705      -2.71413556       0.00000000
Si       2.71489140      -2.71440270       0.00034290       0.00000000
Si      -2.71453302       0.00060273      -2.71478706       0.00000000
Si       0.00045612      -2.71267596       2.71691302       0.00000000
Si       2.71477737      -0.00029322      -2.71482135       0.00000000
