10
Lattice="16.28999089631971 0.0 0.0 0.0 16.28999089631971 0.0 0.0 0.0 34.28971787722196" Properties=species:S:1:pos:R:3:initial_magmoms:R:1 pbc="T T T"
Si      -1.55113380       1.13195952       1.46393174       0.00000000
Si      -0.41505291       1.44451575      -1.89701112       0.00000000
Si      -1.20360294      -1.99575306      -0.86993063       0.00000000
Si       2.28481911      -0.10808415       1.10893010       0.00000000
Si      -1.97685666       2.65175136      -0.34272592       0.00000000
Si       1.49265270       0.02285487       3.37263567       0.00000000
Si      -0.22849983       1.68752997       3.30162162       0.00000000
Si      -3.09829284      -1.07611740      -1.94727988       0.00000000
Si      -1.75599684       0.33241374      -3.50495976       0.00000000
Si      -3.16275237      -0.43508961       2.31081967       0.00000000
