10
Lattice="16.28999089631971 0.0 0.0 0.0 16.28999089631971 0.0 0.0 0.0 34.28971787722196" Properties=species:S:1:pos:R:3:initial_magmoms:R:1 pbc="T T T"
Si      -2.22275421       0.69994872       0.18499313       0.00000000
Si       1.29064041       1.39100310      -1.36898346       0.00000000
Si      -0.44846370      -1.83189195      -1.46256015       0.00000000
Si       0.57448314      -0.36514035       2.29089733       0.00000000
Si       3.09754350      -0.04927725      -1.59076948       0.00000000
Si      -2.18667186      -2.89036728      -0.35194986       0.00000000
Si       0.09870111       1.28774079      -3.43614026       0.00000000
Si      -3.39933204      -1.20687723       0.75639731       0.00000000
Si      -0.54402084       1.53596781       3.43590023       0.00000000
Si      -1.09384092      -0.88482393      -3.56757282       0.00000000
