10
Lattice="16.28999089631971 0.0 0.0 0.0 16.28999089631971 0.0 0.0 0.0 34.28971787722196" Properties=species:S:1:pos:R:3:initial_magmoms:R:1 pbc="T T T"
Si      -1.37179719      -1.34791605      -1.34586875       0.00000000
Si       1.35316143      -1.35571896       1.35842222       0.00000000
Si      -1.35940050       1.35941679       1.35753069       0.00000000
Si       1.36531377       1.36634004      -1.38455443       0.00000000
Si       2.71130760      -2.70702333       0.00120014       0.00000000
Si       2.71135647       0.00249237       2.71516425       0.00000000
Si       2.70896184       2.71845891       0.00017145       0.00000000
Si      -0.00333945      -2.71189404       2.71561001       0.00000000
Si      -2.71575477      -2.71202436      -0.00075437       0.00000000
Si      -2.71782360       0.00221544       2.71543857       0.00000000
