10
Lattice="16.28999089631971 0.0 0.0 0.0 16.28999089631971 0.0 0.0 0.0 34.28971787722196" Properties=species:S:1:pos:R:3:initial_magmoms:R:1 pbc="T T T"
Si       1.28560680      -1.37093382      -1.41096439       0.00000000
Si      -1.34547255      -1.37104785       1.36445036       0.00000000
Si       1.37052657       1.34723743       1.36705638       0.00000000
Si      -1.34581464       1.36797460      -1.45005469       0.00000000
Si      -2.70132183       2.69983034       0.00797236       0.00000000
Si       2.72756502       2.68054298       0.00016802       0.00000000
Si      -2.70301599      -2.72041371      -0.00789693       0.00000000
Si       0.01062108       2.70264851       2.72438133       0.00000000
Si      -2.70485676      -0.01221588       2.72438133       0.00000000
Si       0.01330893      -2.72808630       2.72410701       0.00000000
