10
Lattice="16.28999089631971 0.0 0.0 0.0 16.28999089631971 0.0 0.0 0.0 34.28971787722196" Properties=species:S:1:pos:R:3:initial_magmoms:R:1 pbc="T T T"
Si      -0.69265080       1.04892939      -1.94834286       0.00000000
Si      -1.61331273      -1.47764961       0.84651074       0.00000000
Si       1.68335973      -1.55887155      -0.76829585       0.00000000
Si       0.05269815       1.74293226       1.71133220       0.00000000
Si       2.87529903      -1.45560924       1.29886095       0.00000000
Si      -0.63809559      -2.14666362       2.85283754       0.00000000
Si       1.28228364       2.05786683      -2.76327275       0.00000000
Si      -0.96400962       3.60726967       0.45667072       0.00000000
Si      -1.84783986      -3.29108499      -0.65188219       0.00000000
Si      -2.25691434       2.74971942      -1.48522567       0.00000000
