10
Lattice="16.28999089631971 0.0 0.0 0.0 16.28999089631971 0.0 0.0 0.0 34.28971787722196" Properties=species:S:1:pos:R:3:initial_magmoms:R:1 pbc="T T T"
Si      -2.01275982      -0.67740336      -1.02591464       0.00000000
Si       0.38946132       2.02331574      -1.16670830       0.00000000
Si       1.78044813      -1.25010437      -0.94917421       0.00000000
Si      -0.29085795      -0.14678919       2.66239234       0.00000000
Si       3.46521762       0.32197185      -0.54695560       0.00000000
Si      -1.57431447      -0.50321439      -3.33371681       0.00000000
Si      -2.27665782      -2.93984720      -0.44693243       0.00000000
Si      -0.29405079       1.50117237      -3.45342229       0.00000000
Si       2.68111313       2.43449163      -1.21786859       0.00000000
Si      -0.87026067       3.73251141      -0.07975793       0.00000000
