10
Lattice="16.28999089631971 0.0 0.0 0.0 16.28999089631971 0.0 0.0 0.0 34.28971787722196" Properties=species:S:1:pos:R:3:initial_magmoms:R:1 pbc="T T T"
Si       1.20384729      -1.95349517       0.46620326       0.00000000
Si      -2.29759047      -0.69533213       0.41013954       0.00000000
Si      -0.38048553       0.92975175       2.39273785       0.00000000
Si       0.29085795       0.14678919      -2.66239234       0.00000000
Si      -2.90442555       1.62812034       0.25727590       0.00000000
Si      -2.73536793      -2.54437487      -0.92414270       0.00000000
Si       3.38197734      -2.00729615      -0.49486948       0.00000000
Si      -1.39224114      -0.80950874       3.68766375       0.00000000
Si       2.44306017      -2.09336535       2.50254083       0.00000000
Si      -1.72190187      -0.53061417      -3.68830699       0.00000000
