10
Lattice="16.28999089631971 0.0 0.0 0.0 16.28999089631971 0.0 0.0 0.0 34.28971787722196" Properties=species:S:1:pos:R:3:initial_magmoms:R:1 pbc="T T T"
Si      -1.76290380      -1.05674859      -1.14953398       0.00000000
Si       1.35438515       1.41946173      -1.42481199       0.00000000
Si      -1.42151427       1.24405101       1.59238110       0.00000000
Si       1.26169308      -1.44702441       1.57743420       0.00000000
Si       2.55785810       2.64696210       0.20695228       0.00000000
Si      -3.47825709       0.75189753      -1.22462851       0.00000000
Si      -2.69319312       2.67292836       0.30557985       0.00000000
Si       2.62736427      -2.83602221       0.20797068       0.00000000
Si      -2.77465941      -2.79600908       0.14539191       0.00000000
Si      -0.09694179       2.60789868       2.96223209       0.00000000
