10
Lattice="16.28999089631971 0.0 0.0 0.0 16.28999089631971 0.0 0.0 0.0 34.28971787722196" Properties=species:S:1:pos:R:3:initial_magmoms:R:1 pbc="T T T"
Si      -1.35711990      -1.35752715      -1.35605623       0.00000000
Si       1.35819504       1.35769005      -1.35626197       0.00000000
Si      -1.35624024       1.35941679       1.36030816       0.00000000
Si       1.35971001      -1.35534429       1.36377142       0.00000000
Si      -0.00327429       2.70855459       2.71777027       0.00000000
Si      -2.71401174      -0.00047241      -2.71392982       0.00000000
Si       0.00084708       2.71500543      -2.71358692       0.00000000
Si       0.00003258      -2.71516996      -2.71386124       0.00000000
Si      -2.71573848       2.71407690      -0.00082295       0.00000000
Si       2.71583622       0.00027693      -2.71406698       0.00000000
