10
Lattice="16.28999089631971 0.0 0.0 0.0 16.28999089631971 0.0 0.0 0.0 34.28971787722196" Properties=species:S:1:pos:R:3:initial_magmoms:R:1 pbc="T T T"
Si      -1.34956134      -1.33933122       1.36796506       0.00000000
Si       1.33403697      -1.38318390      -1.35122824       0.00000000
Si       1.36637262       1.37041254       1.36525617       0.00000000
Si      -1.28573712       1.33343424      -1.50909819       0.00000000
Si       2.16642339       0.42583689      -2.66832687       0.00000000
Si       0.55389258       2.24129223      -2.89827628       0.00000000
Si      -0.11523546      -2.62637154      -2.77346164       0.00000000
Si      -2.71635750      -2.69768916      -0.00688881       0.00000000
Si       2.71870326      -2.70081684       0.01821814       0.00000000
Si       0.00848709      -2.70296712       2.72450134       0.00000000
