10
Lattice="16.28999089631971 0.0 0.0 0.0 16.28999089631971 0.0 0.0 0.0 34.28971787722196" Properties=species:S:1:pos:R:3:initial_magmoms:R:1 pbc="T T T"
Si       1.24862850      -1.34436483       1.43235090       0.00000000
Si       1.36382076       1.33530759      -1.35152999       0.00000000
Si      -1.39406562       1.33182153       1.33726545       0.00000000
Si      -1.34917038      -1.38419388      -1.34583789       0.00000000
Si      -0.57454830      -2.13043878       2.75617477       0.00000000
Si      -2.19403494      -0.34334433       2.76001522       0.00000000
Si       2.72142599       2.66028732       0.01138419       0.00000000
Si       0.00604359       2.68921836      -2.70820343       0.00000000
Si      -2.70987408      -0.02366937      -2.70463730       0.00000000
Si       2.71923336      -0.02282229      -2.70652323       0.00000000
