10
Lattice="16.28999089631971 0.0 0.0 0.0 16.28999089631971 0.0 0.0 0.0 34.28971787722196" Properties=species:S:1:pos:R:3:initial_magmoms:R:1 pbc="T T T"
Si      -1.33568226       1.36497168      -1.32025775       0.00000000
Si       1.05964821       1.59809787       1.30979938       0.00000000
Si      -0.79996932      -1.67516586       1.42274977       0.00000000
Si       1.39406562      -1.33182153      -1.33726545       0.00000000
Si      -2.49847875      -2.57329872       0.03665573       0.00000000
Si       2.64269412      -2.67618636       0.09508544       0.00000000
Si      -2.77806402       2.53469142       0.22010582       0.00000000
Si      -2.67675651       0.00601101      -2.68540076       0.00000000
Si       0.04489524      -2.71601541      -2.68310334       0.00000000
Si       0.04486266       2.71979469      -2.67988011       0.00000000
