10
Lattice="16.28999089631971 0.0 0.0 0.0 16.28999089631971 0.0 0.0 0.0 34.28971787722196" Properties=species:S:1:pos:R:3:initial_magmoms:R:1 pbc="T T T"
Si      -1.68564033      -1.64941137       0.12385453       0.00000000
Si       1.81529244      -1.25011089      -1.04830584       0.00000000
Si       0.08847099       0.14338458       2.45754545       0.00000000
Si      -0.68576013       1.98283509      -1.32248658       0.00000000
Si       2.68660937       2.02243608      -0.58326843       0.00000000
Si      -3.65259267      -0.35678358      -0.02321415       0.00000000
Si       3.11901765       1.22888502       1.58199131       0.00000000
Si       2.25935784      -0.46266858       2.94661997       0.00000000
Si      -1.85411151      -2.97470061      -1.78721538       0.00000000
Si       3.52138716       0.21422979      -1.78985569       0.00000000
