10
Lattice="16.28999089631971 0.0 0.0 0.0 16.28999089631971 0.0 0.0 0.0 34.28971787722196" Properties=species:S:1:pos:R:3:initial_magmoms:R:1 pbc="T T T"
Si      -1.70227242      -1.01400363       1.23940255       0.00000000
Si       1.95588233       1.20627450       0.47954197       0.00000000
Si      -1.11483873       1.52096472      -1.41640617       0.00000000
Si       1.01948100      -1.96182099      -0.83766399       0.00000000
Si       0.58707272      -1.16826993      -3.00292372       0.00000000
Si       2.58018029       0.23415246       2.46574070       0.00000000
Si       3.50589212       0.28261521      -0.95376904       0.00000000
Si      -2.01106566      -3.04732143       0.03789016       0.00000000
Si       2.22816968       0.55425096      -2.86514756       0.00000000
Si       0.15982119      -3.65337459       0.52696468       0.00000000
