10
Lattice="16.28999089631971 0.0 0.0 0.0 16.28999089631971 0.0 0.0 0.0 34.28971787722196" Properties=species:S:1:pos:R:3:initial_magmoms:R:1 pbc="T T T"
Si       1.09403870       0.43680006       2.01280756       0.00000000
Si       1.92933451       0.10837737      -1.31970911       0.00000000
Si      -1.70077374       1.66633668      -0.02592304       0.00000000
Si      -0.67416165      -2.28706713      -0.46959795       0.00000000
Si      -0.69494769      -0.44566182       3.32562444       0.00000000
Si      -1.91508498      -1.51549128      -2.52917671       0.00000000
Si       2.64806072      -1.41237558       1.87688305       0.00000000
Si      -3.55956048       0.47102535       0.75910620       0.00000000
Si       2.44210625      -2.49000795      -1.19239132       0.00000000
Si       1.65576025       2.81086363       1.78186619       0.00000000
