10
Lattice="16.28999089631971 0.0 0.0 0.0 16.28999089631971 0.0 0.0 0.0 34.28971787722196" Properties=species:S:1:pos:R:3:initial_magmoms:R:1 pbc="T T T"
Si      -1.46880414       1.36700116      -1.24811214       0.00000000
Si       0.64554012      -1.80322155      -1.39230048       0.00000000
Si       1.79457156       1.51271760       0.38853701       0.00000000
Si      -0.85302585      -0.75916287       2.15641298       0.00000000
Si      -1.74879666      -2.89790955       1.48529425       0.00000000
Si      -1.84811679       3.20312618       0.16174469       0.00000000
Si       2.43452651      -0.92075967      -2.70511736       0.00000000
Si       1.76037885      -3.32418627       0.02410569       0.00000000
Si      -1.41024159      -2.58686829      -2.42860492       0.00000000
Si       1.50664581       2.45623619       2.54628729       0.00000000
