10
Lattice="16.28999089631971 0.0 0.0 0.0 16.28999089631971 0.0 0.0 0.0 34.28971787722196" Properties=species:S:1:pos:R:3:initial_magmoms:R:1 pbc="T T T"
Si       1.35979146      -1.35467640      -1.35612481       0.00000000
Si      -1.35681853      -1.35562122       1.35838793       0.00000000
Si       1.35793440       1.35964485       1.35838793       0.00000000
Si      -1.35621092       1.36130643      -1.36095966       0.00000000
Si      -0.01516599      -2.69720046      -2.72314690       0.00000000
Si      -2.71333217      -2.71046052       0.00130301       0.00000000
Si      -2.71906883       0.00351864      -2.70566599       0.00000000
Si       2.71520091      -2.71326240       0.00109727       0.00000000
Si       0.00128691      -2.71319724       2.71612436       0.00000000
Si      -2.71439912       0.00185706       2.71550715       0.00000000
