10
Lattice="16.28999089631971 0.0 0.0 0.0 16.28999089631971 0.0 0.0 0.0 34.28971787722196" Properties=species:S:1:pos:R:3:initial_magmoms:R:1 pbc="T T T"
Si       1.35540945      -1.35576783      -1.36301705       0.00000000
Si       1.34711784       1.35935163       1.37488130       0.00000000
Si      -1.36151657       1.35979146      -1.36277702       0.00000000
Si      -1.37346040      -1.35703845       1.38389950       0.00000000
Si      -0.14872770       2.55712275       2.83096069       0.00000000
Si       2.71120986      -2.71112841      -0.00075437       0.00000000
Si      -2.71603955      -2.71324611      -0.00229741       0.00000000
Si      -0.00146610      -2.71337643      -2.71948475       0.00000000
Si       2.71301805       0.00169416      -2.71996481       0.00000000
Si       2.71427238       2.71974582      -0.00185165       0.00000000
