10
Lattice="16.28999089631971 0.0 0.0 0.0 16.28999089631971 0.0 0.0 0.0 34.28971787722196" Properties=species:S:1:pos:R:3:initial_magmoms:R:1 pbc="T T T"
Si      -1.55000979       0.92365929       1.43331101       0.00000000
Si      -1.27772244       0.27163575      -1.91137852       0.00000000
Si       2.06565345       1.04721894      -0.06477331       0.00000000
Si      -0.24957909      -2.19893823       0.73476049       0.00000000
Si      -2.48641112      -2.24443620       0.11610505       0.00000000
Si      -0.92571183      -0.04846275       3.41950974       0.00000000
Si       0.37426275      -0.19732077      -3.52728238       0.00000000
Si      -3.50589212      -0.28261521       0.95376904       0.00000000
Si       2.70695817       1.16664093       2.23397637       0.00000000
Si      -1.43501868       3.23586189       1.21029056       0.00000000
