10
Lattice="16.28999089631971 0.0 0.0 0.0 16.28999089631971 0.0 0.0 0.0 34.28971787722196" Properties=species:S:1:pos:R:3:initial_magmoms:R:1 pbc="T T T"
Si       1.45134126      -1.71799227      -0.55117323       0.00000000
Si      -2.23683203      -0.04549797      -0.61865544       0.00000000
Si       0.24957909       2.19893823      -0.73476049       0.00000000
Si      -0.54144702      -0.15781752       2.30392743       0.00000000
Si      -1.30043070       3.12259752       0.69855052       0.00000000
Si      -0.67613274       2.15047548       2.68474925       0.00000000
Si       3.25756017      -1.03319325       0.79548761       0.00000000
Si       0.34580412      -3.51676665       0.69944206       0.00000000
Si      -3.09649184      -1.73705157       0.74597323       0.00000000
Si      -1.02814335       2.47057398      -2.64613901       0.00000000
