10
Lattice="10.86 0.0 0.0 0.0 10.86 0.0 0.0 0.0 10.86" Properties=species:S:1:pos:R:3:initial_magmoms:R:1 pbc="T T T"
Si       1.16687442      -1.15471122      -1.46814168       0.00000000
Si      -1.54812558      -1.15471122       1.24685832       0.00000000
Si       1.16687442       1.56028878       1.24685832       0.00000000
Si       2.52437442      -2.51221122      -0.11064168       0.00000000
Si      -0.19062558      -2.51221122       2.60435832       0.00000000
Si       2.52437442       0.20278878       2.60435832       0.00000000
Si      -0.32531130      -2.40140664      -2.89060620       0.00000000
Si       2.52437442       0.20278878      -2.82564168       0.00000000
Si      -2.93589240      -2.48500692      -0.13273092       0.00000000
Si       2.52437442       2.91778878      -0.11064168       0.00000000
