10
Lattice="16.290000149 0.0 0.0 0.0 16.290000149 0.0 0.0 0.0 29.1751946751" Properties=species:S:1:pos:R:3:initial_magmoms:R:1 pbc="T T T"
Si      -1.37016820       1.38735415       1.31072480       0.00000000
Si      -1.36000324      -1.34602642      -1.36747055       0.00000000
Si       1.35363385       1.34703640      -1.37444342       0.00000000
Si       1.34747623      -1.33351570       1.40700294       0.00000000
Si       0.01293426       2.73773001       2.65100406       0.00000000
Si       2.67100616      -2.72779962       0.04209981       0.00000000
Si      -2.69549003      -2.70962975       0.00169216       0.00000000
Si      -0.06556725      -2.61727686       2.78850676       0.00000000
Si      -0.01008351      -2.69527989      -2.74121377       0.00000000
Si       2.72749988       2.71143794      -0.04300424       0.00000000
