10
Lattice="16.290000149 0.0 0.0 0.0 16.290000149 0.0 0.0 0.0 29.1751946751" Properties=species:S:1:pos:R:3:initial_magmoms:R:1 pbc="T T T"
Si       1.32629923       1.38295585      -1.37573005       0.00000000
Si       1.34931700      -1.36176256       1.37663156       0.00000000
Si      -1.36120870       1.34871427       1.39118998       0.00000000
Si      -1.38621385      -1.37945350      -1.34404579       0.00000000
Si       2.52348392      -0.09008370      -2.80662747       0.00000000
Si      -2.64057644      -2.75340099       0.07943239       0.00000000
Si      -2.83923300       0.03745071      -2.55895924       0.00000000
Si       2.71836119       0.04396671       2.69269250       0.00000000
Si      -0.07118730       2.80798878      -2.60053389       0.00000000
Si       2.63363690       2.83204911      -0.00630184       0.00000000
