10
Lattice="16.290000149 0.0 0.0 0.0 16.290000149 0.0 0.0 0.0 29.1751946751" Properties=species:S:1:pos:R:3:initial_magmoms:R:1 pbc="T T T"
Si       1.03361680       1.10736163      -0.21117006       0.00000000
H       -0.51811974       1.53831358       1.81851906       0.00000000
Si      -2.21658032      -0.78268564      -1.12642509       0.00000000
Si      -0.96998806       0.25415658       2.48117526       0.00000000
Si       1.04337451      -1.11526228       2.40534892       0.00000000
Si      -0.53996463      -2.46231497      -1.37730259       0.00000000
Si      -0.18090045      -2.69716790       0.98434189       0.00000000
Si       2.19694924       0.94636756       1.81113773       0.00000000
Si       2.51925341       0.03432303      -1.64148398       0.00000000
Si      -0.22530699       2.75061540      -1.36817075       0.00000000
