10
Lattice="16.290000149 0.0 0.0 0.0 16.290000149 0.0 0.0 0.0 29.1751946751" Properties=species:S:1:pos:R:3:initial_magmoms:R:1 pbc="T T T"
Si       0.42498981      -0.24426855       2.28921006       0.00000000
Si      -1.71698231       1.63944190       0.06552749       0.00000000
Si      -0.05976801      -2.29509812      -0.65775476       0.00000000
Si       1.86569372       0.90274294      -1.27130911       0.00000000
H       -0.92618425       0.15804558      -2.53191092       0.00000000
Si       2.14347080      -2.67423158       0.15010638       0.00000000
Si      -0.32710320       3.38862954      -0.80246373       0.00000000
Si       2.05741073      -1.98063596       2.37967767       0.00000000
Si       3.45333342       1.71325190       0.29691596       0.00000000
Si      -3.77338305       0.60549931      -0.60480179       0.00000000
