10
Lattice="16.290000149 0.0 0.0 0.0 16.290000149 0.0 0.0 0.0 29.1751946751" Properties=species:S:1:pos:R:3:initial_magmoms:R:1 pbc="T T T"
H       -0.14719644       0.79276915       1.27801940       0.00000000
Si       1.08100441       1.17195148      -1.70187663       0.00000000
Si      -2.21164445       0.08482203      -0.80167600       0.00000000
Si       0.86209939      -2.07627455       0.79411962       0.00000000
H       -1.45018468      -1.87603787       1.71170867       0.00000000
H       -1.55559727       2.83333602       0.83085119       0.00000000
Si      -2.73331541      -1.91148491       0.89474487       0.00000000
Si       1.95701546      -0.60823603      -2.98564355       0.00000000
Si       0.71921980      -1.66037456       3.15217556       0.00000000
Si      -2.75167425       2.46754406      -0.06077193       0.00000000
