10
Lattice="16.290000149 0.0 0.0 0.0 16.290000149 0.0 0.0 0.0 29.1751946751" Properties=species:S:1:pos:R:3:initial_magmoms:R:1 pbc="T T T"
Si      -1.34154667       1.35374788       1.34537997       0.00000000
Si       1.39748653      -1.42503292       1.22480385       0.00000000
Si       1.39430998       1.23158917      -1.42774650       0.00000000
Si      -1.50480505      -1.28511811      -1.28475887       0.00000000
H        0.51023538       2.08269281      -2.31601448       0.00000000
Si       2.70482420       0.02406033       2.59423205       0.00000000
Si      -2.55277334       2.77187385      -0.10505988       0.00000000
Si      -2.66545127      -0.05027094       2.68592677       0.00000000
Si       2.42307236      -0.25474302      -2.90167734       0.00000000
Si       0.07118730      -2.80798878       2.60053389       0.00000000
