10
Lattice="16.290000149 0.0 0.0 0.0 16.290000149 0.0 0.0 0.0 29.1751946751" Properties=species:S:1:pos:R:3:initial_magmoms:R:1 pbc="T T T"
Si      -1.31421368       0.26526636       1.91068350       0.00000000
Si       2.21164445      -0.08482203       0.80167600       0.00000000
Si      -1.29037164      -0.15493419      -2.02510861       0.00000000
Si      -0.54002979       2.38272203       0.74090407       0.00000000
Si      -0.52167096      -1.99630694       1.69642087       0.00000000
H        2.06444801       0.70794712       2.07969540       0.00000000
H       -2.42790072       0.81065557      -1.73493213       0.00000000
H        0.22436217      -1.62396640      -2.65613890       0.00000000
H        0.65604718       2.74851399       1.63252719       0.00000000
H        0.76145977      -1.96085990       2.51338467       0.00000000
