10
Lattice="16.290000149 0.0 0.0 0.0 16.290000149 0.0 0.0 0.0 29.1751946751" Properties=species:S:1:pos:R:3:initial_magmoms:R:1 pbc="T T T"
H       -0.89777449       0.74150452       0.97862355       0.00000000
Si       1.17309178       1.62660538      -1.17716075       0.00000000
Si       1.37395608      -1.15727419       1.47757773       0.00000000
Si      -1.57734442      -1.14820066      -1.33572794       0.00000000
Si      -1.95587516       2.44003025       1.77524524       0.00000000
Si      -0.59624659       2.78208768      -2.20561554       0.00000000
Si       2.63201931       0.42780798      -2.53083144       0.00000000
Si       2.81125492      -2.37306206       0.05190267       0.00000000
Si      -2.20701809       2.95321413      -0.52483258       0.00000000
Si      -0.05209542      -2.36706734       2.88989348       0.00000000
