10
Lattice="16.290000149 0.0 0.0 0.0 16.290000149 0.0 0.0 0.0 29.1751946751" Properties=species:S:1:pos:R:3:initial_magmoms:R:1 pbc="T T T"
Si      -1.43047541       1.21388194      -1.38363361       0.00000000
Si       1.14396526      -1.42715062      -1.46342776       0.00000000
Si      -1.47910758      -1.20345634       1.38748473       0.00000000
Si       1.50460957       1.34078104       1.30162214       0.00000000
H        0.03562623      -2.67248855       0.75645445       0.00000000
H       -2.61663666      -0.23786658       1.67766122       0.00000000
H        2.05025942      -2.32684733      -0.65542075       0.00000000
Si      -0.18873594      -1.04852215       3.41259335       0.00000000
Si      -0.06268392       2.64152126      -2.68347606       0.00000000
Si      -2.86547619       2.45838908      -0.01429585       0.00000000
