10
Lattice="16.290000149 0.0 0.0 0.0 16.290000149 0.0 0.0 0.0 29.1751946751" Properties=species:S:1:pos:R:3:initial_magmoms:R:1 pbc="T T T"
Si       1.45293769      -1.18167661      -1.35443507       0.00000000
Si      -1.34114920      -1.46478052       1.23119613       0.00000000
Si      -1.35771938       1.24538680      -1.45485609       0.00000000
Si       1.42557049       1.36062226       1.28222355       0.00000000
Si       0.09609471      -2.48758076      -2.72642778       0.00000000
Si      -2.69869916      -0.00462636       2.52372144       0.00000000
Si      -2.52747774       2.83656469      -0.16703382       0.00000000
Si       0.09772371       2.67574655       2.70297384       0.00000000
Si       2.75605626      -0.03347595       2.65169843       0.00000000
Si       2.71946891      -2.69309540      -0.01774873       0.00000000
