10
Lattice="16.290000149 0.0 0.0 0.0 16.290000149 0.0 0.0 0.0 29.1751946751" Properties=species:S:1:pos:R:3:initial_magmoms:R:1 pbc="T T T"
Si      -1.25279875       1.10413784      -1.60507334       0.00000000
Si      -1.89478766      -0.01704423       1.33937484       0.00000000
Si       0.43204338      -2.28890629       0.30207997       0.00000000
Si       1.57420045       1.68681485       0.44331708       0.00000000
H        1.83399338       0.58086720      -2.37912042       0.00000000
H       -2.07524828       1.37030015       1.94974908       0.00000000
Si      -1.06435603      -1.26169146       3.05386390       0.00000000
Si       2.04281489      -2.46003274      -1.37870300       0.00000000
Si       0.84261655       2.31842703       2.62315780       0.00000000
Si      -2.58603752       2.65038465      -0.44751831       0.00000000
