10
Lattice="16.290000149 0.0 0.0 0.0 16.290000149 0.0 0.0 0.0 29.1751946751" Properties=species:S:1:pos:R:3:initial_magmoms:R:1 pbc="T T T"
Si       1.54217431      -1.27379656      -1.18862661       0.00000000
Si       1.38197845       1.32541957       1.37179140       0.00000000
Si      -1.21411000      -1.43264035       1.44565424       0.00000000
Si      -1.46952091       1.21241584      -1.45266212       0.00000000
H        0.36041625      -1.81060094      -2.24246381       0.00000000
Si       2.80802996       2.53521272      -0.04052435       0.00000000
Si      -2.66670560       2.68545539      -0.02176470       0.00000000
Si      -2.64368783      -0.05926302       2.73059691       0.00000000
Si      -0.14327055       2.54428625      -2.85383002       0.00000000
Si       0.06157620       2.76900681       2.68786692       0.00000000
