10
Lattice="16.290000149 0.0 0.0 0.0 16.290000149 0.0 0.0 0.0 29.1751946751" Properties=species:S:1:pos:R:3:initial_magmoms:R:1 pbc="T T T"
Si      -0.22415040       2.13583079       0.90956587       0.00000000
Si      -1.81552052      -0.75492748      -1.38348773       0.00000000
Si       0.34179678      -1.95100445       1.37126332       0.00000000
Si       2.12538890       0.58463182      -1.00216794       0.00000000
H        2.21025980      -0.24136893       1.57055908       0.00000000
H       -1.35798328       2.19835181       1.91007082       0.00000000
H        2.86177836      -0.66308446       1.61379672       0.00000000
H       -1.05168241      -1.11061963       2.99640919       0.00000000
Si       1.95190040      -2.73952190      -0.15209029       0.00000000
H        1.06365556      -1.87214456       2.69456263       0.00000000
