10
Lattice="16.290000149 0.0 0.0 0.0 16.290000149 0.0 0.0 0.0 29.1751946751" Properties=species:S:1:pos:R:3:initial_magmoms:R:1 pbc="T T T"
Si      -1.34723351      -1.34716672       1.36831663       0.00000000
Si       1.35052246      -1.36844146      -1.36038098       0.00000000
Si      -1.36556791       1.34662915      -1.37333476       0.00000000
Si       1.33092559       1.34612416       1.41365488       0.00000000
Si      -2.64835264       2.69190623       0.08186560       0.00000000
Si       0.04593780       2.73702953      -2.62972076       0.00000000
Si       2.70427034       0.02780703      -2.68099616       0.00000000
Si      -2.71300178      -2.67636557      -0.00954029       0.00000000
Si       2.71767701       2.70477533       0.10771482       0.00000000
Si       0.00346977      -2.70777269       2.72688875       0.00000000
