10
Lattice="16.290000149 0.0 0.0 0.0 16.290000149 0.0 0.0 0.0 29.1751946751" Properties=species:S:1:pos:R:3:initial_magmoms:R:1 pbc="T T T"
Si      -1.31230612       0.45945945      -0.60623137       0.00000000
H        0.57243061      -0.12070890      -2.33077713       0.00000000
Si       1.75783763      -0.63382762      -1.53163937       0.00000000
Si       1.06541488      -2.49583979      -0.11258708       0.00000000
Si      -2.57191409       0.70796341       1.33091403       0.00000000
Si      -2.28398834      -1.53717328      -1.48320855       0.00000000
Si       0.43471494      -2.16300251       2.21661459       0.00000000
Si      -1.34729704      -0.61535476       2.84510663       0.00000000
Si      -1.04459626       2.49013829      -1.80221013       0.00000000
Si       3.05668821       1.03746124      -0.35433274       0.00000000
