10
Lattice="16.290000149 0.0 0.0 0.0 16.290000149 0.0 0.0 0.0 29.1751946751" Properties=species:S:1:pos:R:3:initial_magmoms:R:1 pbc="T T T"
Si       1.35868375       1.36549297       1.33117661       0.00000000
Si       1.36539523      -1.34672689      -1.35066564       0.00000000
Si      -1.33154461       1.36617715      -1.37388909       0.00000000
Si      -1.35583300      -1.37744983       1.35585882       0.00000000
Si       2.69491988      -0.00988803       2.68443884       0.00000000
Si      -0.00289962      -2.69555519      -2.68910687       0.00000000
Si      -2.70760979       0.00259011      -2.68190060       0.00000000
Si      -2.71282259       2.68104080      -0.01298296       0.00000000
Si       0.01257588       2.71321355       2.69870551       0.00000000
Si       2.69690726       2.72287352      -0.04936443       0.00000000
