10
Lattice="16.290000149 0.0 0.0 0.0 16.290000149 0.0 0.0 0.0 29.1751946751" Properties=species:S:1:pos:R:3:initial_magmoms:R:1 pbc="T T T"
H       -1.13752908       0.96558976       0.29017649       0.00000000
H        1.51473381      -1.46903221      -0.63103029       0.00000000
Si       1.47910758       1.20345634      -1.38748473       0.00000000
Si       1.29037164       0.15493419       2.02510861       0.00000000
Si      -1.31674889      -1.70080634      -1.13681146       0.00000000
H       -2.29034959      -0.84020563       2.21833593       0.00000000
Si       2.12771022      -2.77481093      -0.19074742       0.00000000
Si       0.04863217       2.41733828      -2.77111834       0.00000000
Si      -2.60507239      -0.35298801      -2.63810863       0.00000000
Si       0.75034184       2.53765622       2.76601268       0.00000000
