10
Lattice="16.290000149 0.0 0.0 0.0 16.290000149 0.0 0.0 0.0 29.1751946751" Properties=species:S:1:pos:R:3:initial_magmoms:R:1 pbc="T T T"
Si      -1.38385180       1.34359921       1.33546536       0.00000000
Si      -1.36500427      -1.33999912      -1.37181765       0.00000000
Si       1.34379469       1.37163430      -1.36347355       0.00000000
Si       1.33964074      -1.36593280       1.37528950       0.00000000
Si      -2.68063355       2.64717389      -0.12521994       0.00000000
Si       2.65974977      -2.70212006      -0.03206354       0.00000000
Si       0.00410508       2.70212006       2.66594176       0.00000000
Si      -2.73349461      -0.04746906       2.68052936       0.00000000
Si       2.73101852       0.00962739       2.68706460       0.00000000
Si      -0.01889640      -2.68771970      -2.73934655       0.00000000
