10
Lattice="16.290000149 0.0 0.0 0.0 16.290000149 0.0 0.0 0.0 29.1751946751" Properties=species:S:1:pos:R:3:initial_magmoms:R:1 pbc="T T T"
Si       1.29883429       1.29743335      -1.49878810       0.00000000
Si       1.25892379      -1.64325376       1.15700070       0.00000000
Si      -0.99984763       1.76629214       1.26392778       0.00000000
Si      -1.29885058      -1.67128886      -1.17730663       0.00000000
H        0.22530699      -2.75061540       1.36817075       0.00000000
H       -3.05668821      -1.03746124       0.35433274       0.00000000
H       -2.48425760      -1.15817014      -1.97644439       0.00000000
H       -0.29281275      -1.21230181       3.18668981       0.00000000
H       -1.85409524       0.49971204      -3.08154241       0.00000000
Si      -2.52613919       2.76324015      -0.24177484       0.00000000
