10
Lattice="16.290000149 0.0 0.0 0.0 16.290000149 0.0 0.0 0.0 29.1751946751" Properties=species:S:1:pos:R:3:initial_magmoms:R:1 pbc="T T T"
Si      -0.73725283       1.32514264      -1.78989819       0.00000000
Si       1.99484084      -0.88570197      -0.97523923       0.00000000
Si      -1.51594741      -1.84994943      -0.07069150       0.00000000
Si      -0.62380927       1.07157250       2.04701918       0.00000000
H        2.46036017       1.39704670       1.03344375       0.00000000
H        1.24377409      -0.77195379       2.76916360       0.00000000
Si      -2.49478094       2.29521215      -0.52871288       0.00000000
Si       0.80490520      -2.03405152      -2.66751722       0.00000000
Si      -0.62946190      -0.40708710      -3.59482161       0.00000000
Si       2.56762982      -2.62453079       0.54367975       0.00000000
