10
Lattice="16.290000149 0.0 0.0 0.0 16.290000149 0.0 0.0 0.0 29.1751946751" Properties=species:S:1:pos:R:3:initial_magmoms:R:1 pbc="T T T"
Si       1.35771938      -1.24538680       1.45485609       0.00000000
Si      -1.16975836       1.59117789       1.28782227       0.00000000
Si       1.31648939       1.42741126      -1.34599761       0.00000000
Si      -1.46137917      -1.37899738      -1.35367068       0.00000000
Si      -0.52481005       2.60133709      -2.27832013       0.00000000
Si       2.81065708      -2.42706341       0.10042102       0.00000000
Si      -1.45362513       3.41739768      -0.28171568       0.00000000
Si      -0.00245165      -2.57779478      -2.70734137       0.00000000
Si      -2.64444043       0.28031832       2.66101407       0.00000000
Si       0.01657019      -2.71016732       2.68605223       0.00000000
