10
Lattice="16.290000149 0.0 0.0 0.0 16.290000149 0.0 0.0 0.0 29.1751946751" Properties=species:S:1:pos:R:3:initial_magmoms:R:1 pbc="T T T"
Si      -1.26789307       1.42812802       1.32113480       0.00000000
Si       1.63192244      -1.18439704       1.20801148       0.00000000
Si       0.69262474       1.74389339      -1.51533044       0.00000000
Si      -1.33601785      -1.97563493      -0.49236059       0.00000000
Si       0.29471542      -2.58974513       2.55988410       0.00000000
Si       0.16116186       0.85375891      -3.61145147       0.00000000
Si      -2.58844193       0.10192653       2.68531118       0.00000000
Si      -0.40720276      -2.79169552      -2.48896503       0.00000000
Si       0.21311067       2.81893566       2.51318044       0.00000000
Si      -2.40876323       2.92508130      -0.05767936       0.00000000
