10
Lattice="16.290000149 0.0 0.0 0.0 16.290000149 0.0 0.0 0.0 29.1751946751" Properties=species:S:1:pos:R:3:initial_magmoms:R:1 pbc="T T T"
Si      -1.36029646       1.35148357       1.35317470       0.00000000
Si      -1.35979147      -1.34319196      -1.36385283       0.00000000
Si       1.32382315      -1.36430380       1.39267792       0.00000000
Si       1.35583300       1.37744983      -1.35585882       0.00000000
Si       2.69462666      -2.70405857       0.02704541       0.00000000
Si       2.69690726       0.01961316       2.70232323       0.00000000
Si       0.01356957       2.71588511       2.68461389       0.00000000
Si      -2.72401382      -2.69083272      -0.01359564       0.00000000
Si       0.00289962      -2.70561753      -2.70950033       0.00000000
Si      -2.71583624       2.70277166      -0.01479182       0.00000000
