10
Lattice="16.290000149 0.0 0.0 0.0 16.290000149 0.0 0.0 0.0 29.1751946751" Properties=species:S:1:pos:R:3:initial_magmoms:R:1 pbc="T T T"
Si      -1.35487189      -1.35467641       1.33456093       0.00000000
Si      -1.37441989       1.34641575      -1.33674907       0.00000000
Si       1.30666978       1.31389603       1.44656450       0.00000000
Si       1.35285193      -1.38494323      -1.33721587       0.00000000
Si       0.04012227      -2.80521948       2.52817649       0.00000000
Si       2.67341708       2.67294467       0.06952449       0.00000000
Si      -0.01019754       2.69405651      -2.68700625       0.00000000
Si       2.71231760      -0.02130732      -2.67968328       0.00000000
Si      -2.72424188      -0.02352276      -2.68802739       0.00000000
Si      -2.72433962       2.69566922       0.03699415       0.00000000
