10
Lattice="16.290000149 0.0 0.0 0.0 16.290000149 0.0 0.0 0.0 29.1751946751" Properties=species:S:1:pos:R:3:initial_magmoms:R:1 pbc="T T T"
Si       1.36098064       1.35386191       1.35270790       0.00000000
Si      -1.33077572      -1.35886294       1.38255413       0.00000000
Si       1.37705887      -1.36490653      -1.33246032       0.00000000
Si      -1.36877867       1.35202114      -1.36084778       0.00000000
Si      -2.66551806      -2.73520505       0.03664404       0.00000000
Si      -0.00832419       2.70726770       2.70404457       0.00000000
Si       2.71581995       2.69884577      -0.02167717       0.00000000
Si      -0.02345760       2.67286322      -2.74504155       0.00000000
Si      -2.71902908       0.00223173       2.70547415       0.00000000
Si       2.70899444      -0.00721647       2.71804866       0.00000000
