10
Lattice="16.290000149 0.0 0.0 0.0 16.290000149 0.0 0.0 0.0 29.1751946751" Properties=species:S:1:pos:R:3:initial_magmoms:R:1 pbc="T T T"
Si       2.23230017      -0.50419179       0.32746239       0.00000000
Si      -1.05122629       0.67337485       2.06811285       0.00000000
Si      -0.05525568       2.06804810      -1.28814320       0.00000000
Si      -0.65078551      -1.77150494      -1.58561348       0.00000000
Si      -2.36288081       1.98243926      -0.93025108       0.00000000
H       -0.66018484      -2.92346859       1.54438893       0.00000000
Si       2.79352326      -1.54034983      -1.68194997       0.00000000
Si      -3.11938842       1.39985836       1.22293664       0.00000000
Si       3.47584620       1.28172979      -0.51602167       0.00000000
Si       1.17219583      -3.22717935      -1.75325415       0.00000000
