10
Lattice="16.290000149 0.0 0.0 0.0 16.290000149 0.0 0.0 0.0 29.1751946751" Properties=species:S:1:pos:R:3:initial_magmoms:R:1 pbc="T T T"
Si       1.83249470       1.02232783      -0.94169651       0.00000000
Si       1.40656006      -1.36216981       1.25497975       0.00000000
Si      -1.31992984       1.48939085       1.20807771       0.00000000
Si      -1.30390048      -1.18635184      -1.55173437       0.00000000
Si       1.00206307       2.26697506      -2.65618558       0.00000000
Si      -2.66826944       0.09345573       2.51923138       0.00000000
Si      -2.62780508      -2.59037066      -0.21118756       0.00000000
Si       0.05216058      -2.70396083       2.56979199       0.00000000
Si       2.74247040      -2.51603939      -0.30288228       0.00000000
Si       2.83090881       0.09557343       2.47908631       0.00000000
