10
Lattice="16.290000149 0.0 0.0 0.0 16.290000149 0.0 0.0 0.0 29.1751946751" Properties=species:S:1:pos:R:3:initial_magmoms:R:1 pbc="T T T"
Si       1.36020687       1.35021295      -1.35343728       0.00000000
Si       1.37037183      -1.34245891       1.35682160       0.00000000
Si      -1.33854250       1.36296802       1.37280961       0.00000000
Si      -1.34825001      -1.37810143      -1.35148254       0.00000000
Si      -2.68793962      -0.04761567       2.67793277       0.00000000
Si       2.66923870      -2.70011639      -0.06091781       0.00000000
Si      -0.02880887       2.69982317      -2.68292173       0.00000000
Si      -2.69113246      -0.02000412      -2.72026598       0.00000000
Si       2.67849142      -0.01225008      -2.74442304       0.00000000
Si       2.72675869       0.03940551       2.70737054       0.00000000
