10
Lattice="16.290000149 0.0 0.0 0.0 16.290000149 0.0 0.0 0.0 29.1751946751" Properties=species:S:1:pos:R:3:initial_magmoms:R:1 pbc="T T T"
Si      -1.36098064      -1.35386191      -1.35270790       0.00000000
Si      -1.36930483       1.35340579       1.35133667       0.00000000
Si       1.35483931       1.34498386      -1.37438507       0.00000000
Si       1.34801380      -1.36107838       1.36534076       0.00000000
Si       2.68993514       2.69604389       0.01902223       0.00000000
Si       0.01607823      -2.71876844      -2.68516822       0.00000000
Si      -2.69175637      -2.71272485       0.02984622       0.00000000
Si       2.71282259      -0.00579924       2.71259290       0.00000000
Si      -0.02225214       2.69273702      -2.73593306       0.00000000
Si      -0.02880072       2.71619462       2.71623980       0.00000000
