10
Lattice="16.290000149 0.0 0.0 0.0 16.290000149 0.0 0.0 0.0 29.1751946751" Properties=species:S:1:pos:R:3:initial_magmoms:R:1 pbc="T T T"
Si       1.35946567       1.36363591      -1.34246741       0.00000000
Si      -1.35285193       1.38494323       1.33721587       0.00000000
Si       1.38702835      -1.34250778       1.34731049       0.00000000
Si      -1.35697330      -1.36308205      -1.35807614       0.00000000
Si      -2.70772382       0.03026682       2.67177680       0.00000000
Si       0.04952160      -2.78997204       2.60350685       0.00000000
Si       2.69136866       2.71813313       0.04110785       0.00000000
Si      -0.00035838       2.71657418      -2.69543789       0.00000000
Si       2.71042796       0.00298107      -2.70229406       0.00000000
Si      -2.72635958      -0.01513341      -2.69937654       0.00000000
