10
Lattice="16.290000149 0.0 0.0 0.0 16.290000149 0.0 0.0 0.0 29.1751946751" Properties=species:S:1:pos:R:3:initial_magmoms:R:1 pbc="T T T"
Si      -1.41656375       1.22385142      -1.37776939       0.00000000
Si      -1.31223607      -1.48843360       1.27139663       0.00000000
Si       1.50495166      -1.33402069      -1.24869833       0.00000000
Si       0.66469717       1.87802525       1.29529112       0.00000000
Si       0.04893516       2.60563439      -2.59347058       0.00000000
Si       0.25034472      -2.56795562       2.63513276       0.00000000
Si      -2.75796219       2.52529211       0.04592176       0.00000000
Si       0.06967233      -2.74336635      -2.56557909       0.00000000
Si      -2.70466130      -0.18612954      -2.69669242       0.00000000
Si      -0.98665273       3.53251911       1.19770009       0.00000000
