10
Lattice="16.290000149 0.0 0.0 0.0 16.290000149 0.0 0.0 0.0 29.1751946751" Properties=species:S:1:pos:R:3:initial_magmoms:R:1 pbc="T T T"
Si      -1.56532240       1.28334250      -1.12231139       0.00000000
Si      -1.39046554      -1.43589835       1.17675230       0.00000000
Si       1.55973493       1.12374937       1.46865012       0.00000000
Si       1.07199604      -1.11057076      -1.86659978       0.00000000
Si       2.09543159      -2.44652996      -0.24804751       0.00000000
Si       0.30924936      -3.03448494       1.19376144       0.00000000
Si       0.05116689       2.30940074      -2.51811105       0.00000000
Si       1.83317888       0.76175299      -3.14660310       0.00000000
Si      -2.97810525      -2.24640731      -0.39147276       0.00000000
Si      -2.53974134       2.73670374       0.38998483       0.00000000
