10
Lattice="16.290000149 0.0 0.0 0.0 16.290000149 0.0 0.0 0.0 29.1751946751" Properties=species:S:1:pos:R:3:initial_magmoms:R:1 pbc="T T T"
H        1.22538268      -1.95908429       0.22459065       0.00000000
H       -1.98231383      -0.62188705      -1.08385848       0.00000000
Si       1.87729220       0.70400494       1.27839868       0.00000000
Si      -0.76118284      -1.87232375       1.28000332       0.00000000
Si       0.63069994      -0.33283728      -2.32920167       0.00000000
Si      -1.78201199       1.54764775       0.62849204       0.00000000
H       -2.63383238      -0.20017152      -1.12709612       0.00000000
H        2.84728026       0.44984835      -1.20277658       0.00000000
H        2.32916051       1.98816194       0.61574248       0.00000000
H       -0.43471494       2.16300251      -2.21661459       0.00000000
