10
Lattice="16.290000149 0.0 0.0 0.0 16.290000149 0.0 0.0 0.0 29.1751946751" Properties=species:S:1:pos:R:3:initial_magmoms:R:1 pbc="T T T"
Si       1.25279875      -1.10413784       1.60507334       0.00000000
Si      -1.80994934      -1.32657942      -0.60468508       0.00000000
Si       1.21920877       1.32025564      -1.49619151       0.00000000
Si      -1.33323877       1.54624681       1.15755502       0.00000000
Si      -0.64198891      -1.12118207       2.94444817       0.00000000
H        3.08679213      -0.52327064      -0.77404709       0.00000000
Si      -0.19451889      -2.85531123      -1.68206667       0.00000000
Si       2.75294487       2.04193523       0.11454181       0.00000000
Si      -3.03119436       0.54374392      -1.55719684       0.00000000
Si      -2.54044181      -1.67235096       1.65790961       0.00000000
