10
Lattice="16.290000149 0.0 0.0 0.0 16.290000149 0.0 0.0 0.0 29.1751946751" Properties=species:S:1:pos:R:3:initial_magmoms:R:1 pbc="T T T"
Si      -1.37011933       1.36119078      -1.31390489       0.00000000
Si      -1.38675142      -1.35865117       1.30594006       0.00000000
Si       1.32416524      -1.35215146      -1.38389618       0.00000000
Si       1.35596332       1.37061129       1.33879133       0.00000000
Si      -0.00496845      -2.70506855       2.64210563       0.00000000
Si      -0.02718801       2.69439860      -2.66191559       0.00000000
Si       2.67250484       0.04378366      -2.69504986       0.00000000
Si       2.73851193       0.01132155       2.66095281       0.00000000
Si      -2.70554096       0.01044189       2.69508778       0.00000000
Si      -0.00337203       2.72662023       2.68029596       0.00000000
