10
Lattice="16.290000149 0.0 0.0 0.0 16.290000149 0.0 0.0 0.0 29.1751946751" Properties=species:S:1:pos:R:3:initial_magmoms:R:1 pbc="T T T"
Si       1.33038802      -1.41959369      -1.28601341       0.00000000
Si      -1.34819299      -1.37358584       1.33762433       0.00000000
Si       1.38548080       1.35018037       1.32493312       0.00000000
Si      -1.30069135       1.34965909      -1.41814786       0.00000000
Si       2.66519063      -0.08070066      -2.61451757       0.00000000
Si       0.01466100       2.69513165       2.66462888       0.00000000
Si      -2.67887423       2.69495246      -0.06412708       0.00000000
Si      -2.70752834      -0.01757691       2.67912895       0.00000000
Si       0.03435561      -2.73287559       2.65978580       0.00000000
Si      -2.73134432      -0.04979853      -2.66308259       0.00000000
