10
Lattice="16.290000149 0.0 0.0 0.0 16.290000149 0.0 0.0 0.0 29.1751946751" Properties=species:S:1:pos:R:3:initial_magmoms:R:1 pbc="T T T"
Si       1.32625036       1.33187041      -1.40116790       0.00000000
Si      -1.19718469       1.47303955       1.43089742       0.00000000
Si       1.46952091      -1.21241584       1.45266212       0.00000000
Si      -1.55973493      -1.12374937      -1.46865012       0.00000000
H        1.82993717      -3.02301678      -0.78980169       0.00000000
Si      -2.52348392       0.09008370       2.80662747       0.00000000
Si      -0.17159886       2.64332945      -2.69558376       0.00000000
Si       2.90359479       2.48007107      -0.06543996       0.00000000
Si      -2.59467122       2.89807248       0.20609358       0.00000000
H        2.00582030       3.22157559       0.91318359       0.00000000
