10
Lattice="16.290000149 0.0 0.0 0.0 16.290000149 0.0 0.0 0.0 29.1751946751" Properties=species:S:1:pos:R:3:initial_magmoms:R:1 pbc="T T T"
Si      -1.42923574       1.44401077       1.12149448       0.00000000
Si      -1.35954712      -1.30820104      -1.38955617       0.00000000
Si       1.34964280       1.39106827      -1.34506400       0.00000000
Si       1.33156090      -1.31523832       1.44274255       0.00000000
H       -0.58453408       2.37793277       1.93148541       0.00000000
Si      -2.70091460      -2.64101627      -0.01657151       0.00000000
Si       0.01365102      -2.66730833      -2.71057981       0.00000000
Si       2.71713944      -2.66546756       0.08802156       0.00000000
Si       2.73349461       0.04746906      -2.68052936       0.00000000
Si      -2.72437220       2.73774630      -0.30526006       0.00000000
