10
Lattice="16.290000149 0.0 0.0 0.0 16.290000149 0.0 0.0 0.0 29.1751946751" Properties=species:S:1:pos:R:3:initial_magmoms:R:1 pbc="T T T"
Si       1.36029646      -1.35148357      -1.35317470       0.00000000
Si       1.37386603       1.36440154       1.33143918       0.00000000
Si      -1.35553978       1.35128809      -1.36796653       0.00000000
Si      -1.35363385      -1.34703640       1.37444342       0.00000000
Si       0.00066789       2.72350883       2.65246282       0.00000000
Si       2.68411961      -2.71578737       0.03950321       0.00000000
Si      -2.71363709      -2.69306282       0.00697287       0.00000000
Si      -2.72380205       0.04031775       2.68516822       0.00000000
Si       0.00050499      -2.69467553      -2.71702753       0.00000000
Si       2.71612946       0.02596626      -2.70903353       0.00000000
