10
Lattice="16.290000149 0.0 0.0 0.0 16.290000149 0.0 0.0 0.0 29.1751946751" Properties=species:S:1:pos:R:3:initial_magmoms:R:1 pbc="T T T"
Si      -1.36334269      -1.36080145       1.33091403       0.00000000
Si       1.33621984      -1.44045955      -1.28928103       0.00000000
Si      -1.38421018       1.35695701      -1.33984164       0.00000000
Si       1.38087073       1.34387614       1.35644233       0.00000000
Si       2.69061932      -0.09866853      -2.60409327       0.00000000
Si       0.01974348      -2.69944850       2.68157967       0.00000000
Si      -2.71334387       0.00403992       2.68616017       0.00000000
Si      -0.03587058       2.75289213      -2.65099531       0.00000000
Si      -2.69843852      -2.71186148      -0.06249327       0.00000000
Si      -2.70837542       2.70910847       0.04405454       0.00000000
