10
Lattice="16.290000149 0.0 0.0 0.0 16.290000149 0.0 0.0 0.0 29.1751946751" Properties=species:S:1:pos:R:3:initial_magmoms:R:1 pbc="T T T"
Si       1.30412854      -1.38033316       1.37517280       0.00000000
Si      -1.37308411      -1.38391696      -1.30964531       0.00000000
Si      -1.32359509       1.37093383       1.37350981       0.00000000
Si       1.35384562       1.34794864      -1.37374322       0.00000000
Si      -2.68333769       2.69627195      -0.01770934       0.00000000
Si       2.68337679      -0.01868463       2.70894600       0.00000000
Si      -0.00228060      -2.72367173      -2.67527783       0.00000000
Si      -2.69690726      -0.01961316      -2.70232323       0.00000000
Si       2.69625566       2.70892928      -0.01972243       0.00000000
Si      -2.66370824       0.02241504       2.74602767       0.00000000
