10
Lattice="16.290000149 0.0 0.0 0.0 16.290000149 0.0 0.0 0.0 29.1751946751" Properties=species:S:1:pos:R:3:initial_magmoms:R:1 pbc="T T T"
Si       1.34293132       1.33320782      -1.34801069       0.00000000
Si      -1.35625654       1.39129796       1.29324885       0.00000000
Si       1.37011933      -1.36119078       1.31390489       0.00000000
Si      -1.30161988      -1.32893658      -1.42353069       0.00000000
Si      -2.68207033       0.00854085       2.65319220       0.00000000
Si      -0.01663209      -2.71984196       2.61984496       0.00000000
Si       0.03590316       2.73440847       2.62302505       0.00000000
Si       2.72608265       0.00942051       2.65269623       0.00000000
Si      -2.57995484       0.04399115      -2.81083162       0.00000000
Si      -2.64922318       2.74449198      -0.13732764       0.00000000
