10
Lattice="16.290000149 0.0 0.0 0.0 16.290000149 0.0 0.0 0.0 29.1751946751" Properties=species:S:1:pos:R:3:initial_magmoms:R:1 pbc="T T T"
Si       1.36663327      -1.35751087       1.32822991       0.00000000
Si       1.36873468       1.34469064      -1.34197143       0.00000000
Si      -1.34050411      -1.36278883      -1.36490313       0.00000000
Si      -1.31828455       1.36246303       1.39098576       0.00000000
Si      -0.01304829       2.69110802      -2.67813700       0.00000000
Si      -0.00925272      -2.68786631       2.68350523       0.00000000
Si       2.71564076       0.00418653       2.67603638       0.00000000
Si      -2.69914551      -2.71490771      -0.00247989       0.00000000
Si      -2.69120739      -0.00218286      -2.72347525       0.00000000
Si       2.71873586      -0.02015073      -2.69721757       0.00000000
