10
Lattice="16.290000149 0.0 0.0 0.0 16.290000149 0.0 0.0 0.0 29.1751946751" Properties=species:S:1:pos:R:3:initial_magmoms:R:1 pbc="T T T"
Si       1.34664870      -1.35928974       1.35580047       0.00000000
Si      -1.31383999      -1.38260073      -1.36513653       0.00000000
Si       1.32581379       1.38275711      -1.35994335       0.00000000
Si      -1.37928734       1.34957438       1.34022092       0.00000000
Si      -2.62970776       0.05296042      -2.64152213       0.00000000
Si       2.68207033      -0.00854085      -2.65319220       0.00000000
Si      -0.00923969       2.71848826       2.66562084       0.00000000
Si       2.66543824      -2.72838280      -0.03334725       0.00000000
Si       2.70344281       0.00298596       2.70623271       0.00000000
Si      -0.02881375      -2.70741757       2.70629106       0.00000000
