10
Lattice="16.290000149 0.0 0.0 0.0 16.290000149 0.0 0.0 0.0 29.1751946751" Properties=species:S:1:pos:R:3:initial_magmoms:R:1 pbc="T T T"
Si      -1.37065202      -1.37194055      -1.33003877       0.00000000
Si       1.34730193       1.35393033      -1.37596053       0.00000000
Si       1.40601109      -1.33838315       1.33278124       0.00000000
Si      -1.39634135       1.33733082       1.34795234       0.00000000
Si      -0.01709310       2.69897935       2.68172554       0.00000000
Si       0.06909892      -2.68880788       2.70284839       0.00000000
Si      -2.70275049      -0.00600775      -2.70249828       0.00000000
Si      -2.70046989       2.71766398      -0.02722046       0.00000000
Si      -0.00072816      -2.71172791      -2.70979208       0.00000000
Si       2.70298832       2.72183422      -0.03862796       0.00000000
