10
Lattice="16.28999089631971 0.0 0.0 0.0 16.28999089631971 0.0 0.0 0.0 34.3005442915855" Properties=species:S:1:pos:R:3:initial_magmoms:R:1 pbc="T T T"
Si      -1.22946236       1.41745154       1.42912955       0.00000000
Si       1.11402423       1.14777059      -1.78676235       0.00000000
Si       1.48566429      -1.32658985       1.41067584       0.00000000
Si      -1.89396404      -0.82823410      -1.32360184       0.00000000
Si       2.69532711       2.56772102      -0.09387378       0.00000000
Si      -2.65993613      -2.64371780       0.08506197       0.00000000
Si      -2.42148311       2.92654085      -0.11958548       0.00000000
Si      -2.58697322       0.03518803       2.80541221       0.00000000
Si       2.75817393      -2.68204817      -0.18620404       0.00000000
Si       0.13050571      -2.67854582       2.80307978       0.00000000
