10
Lattice="16.28999089631971 0.0 0.0 0.0 16.28999089631971 0.0 0.0 0.0 34.3005442915855" Properties=species:S:1:pos:R:3:initial_magmoms:R:1 pbc="T T T"
Si      -1.35645201      -1.35895741       1.38354410       0.00000000
Si       1.35596331       1.36081773       1.38570503       0.00000000
Si       1.49211513      -1.31016560      -1.39530919       0.00000000
Si      -1.50830739       1.17330354      -1.51330656       0.00000000
Si      -2.71560816       2.69421939       0.00982711       0.00000000
Si       2.70982521       2.70860346       0.01377511       0.00000000
Si      -2.71797021      -2.72100734      -0.00875693       0.00000000
Si       2.73142575      -2.72085768       0.01358302       0.00000000
Si       2.71467963      -0.00014661       2.74383584       0.00000000
Si       0.00035838      -2.71458898       2.74537937       0.00000000
