10
Lattice="16.28999089631971 0.0 0.0 0.0 16.28999089631971 0.0 0.0 0.0 34.3005442915855" Properties=species:S:1:pos:R:3:initial_magmoms:R:1 pbc="T T T"
Si      -1.35593073      -1.35700482      -1.35768490       0.00000000
Si      -1.35733167       1.35738868       1.35717039       0.00000000
Si       1.35817875      -1.35788815       1.35734190       0.00000000
Si       1.35839052       1.35743755      -1.35922843       0.00000000
Si      -2.71505430      -0.00100346       2.71341467       0.00000000
Si      -0.00127062       2.71511131       2.71389488       0.00000000
Si      -2.71437012      -2.71513479      -0.00034301       0.00000000
Si       2.71516833      -2.71497189      -0.00030871       0.00000000
Si       2.71521720       2.71520905      -0.00017150       0.00000000
Si      -2.71518462       2.71537196      -0.00054881       0.00000000
