10
Lattice="16.28999089631971 0.0 0.0 0.0 16.28999089631971 0.0 0.0 0.0 34.3005442915855" Properties=species:S:1:pos:R:3:initial_magmoms:R:1 pbc="T T T"
Si      -2.03867721      -0.23982138      -1.17867026       0.00000000
Si      -0.65715489       2.28030678       0.15287761       0.00000000
Si       0.52699779      -0.51675138       2.28181068       0.00000000
Si       1.53844389      -1.08463707      -1.57631669       0.00000000
Si       2.87759592       0.83217465      -0.95691712       0.00000000
Si      -2.12125122       1.66070034       1.97458054       0.00000000
Si      -2.08236699       2.01829842      -2.01701033       0.00000000
Si      -1.52423901      -1.86235425      -2.73032485       0.00000000
Si       1.37008674       3.49343937       0.43499975       0.00000000
Si       3.02893002       1.96625187       1.12121682       0.00000000
