10
Lattice="16.28999089631971 0.0 0.0 0.0 16.28999089631971 0.0 0.0 0.0 34.3005442915855" Properties=species:S:1:pos:R:3:initial_magmoms:R:1 pbc="T T T"
Si      -1.24655967       1.41709968      -1.40165823       0.00000000
Si       1.44550944      -1.32063030      -1.37644731       0.00000000
Si      -1.92715587      -0.70047000       1.25406290       0.00000000
Si       1.77008769       0.66844386       1.48620911       0.00000000
Si      -0.96506847      -1.20539484       3.30708883       0.00000000
Si      -2.53654848       2.76324012      -0.00459628       0.00000000
Si       0.49982607       0.73515141       3.65925271       0.00000000
Si       2.69555517       2.66554899       0.11374067       0.00000000
Si      -2.61724914       0.05437602      -2.74870995       0.00000000
Si       0.09545940      -2.65852800      -2.75248302       0.00000000
