10
Lattice="16.28999089631971 0.0 0.0 0.0 16.28999089631971 0.0 0.0 0.0 34.3005442915855" Properties=species:S:1:pos:R:3:initial_magmoms:R:1 pbc="T T T"
Si      -1.35599589       1.35723393      -1.36087486       0.00000000
Si       1.35806472      -1.36018242      -1.36114926       0.00000000
Si       1.35500220       1.36705680       1.37404627       0.00000000
Si      -1.36264221      -1.37751498       1.37284575       0.00000000
Si       2.71362078       2.71142163      -0.00061741       0.00000000
Si      -2.71269225      -2.71541268      -0.00318995       0.00000000
Si      -2.71583622       2.71376739      -0.00521369       0.00000000
Si       0.00130320       2.71332756      -2.71852546       0.00000000
Si      -2.71401174      -0.00115659      -2.71821675       0.00000000
Si       2.71572219      -0.00174303      -2.71842256       0.00000000
