10
Lattice="16.28999089631971 0.0 0.0 0.0 16.28999089631971 0.0 0.0 0.0 34.3005442915855" Properties=species:S:1:pos:R:3:initial_magmoms:R:1 pbc="T T T"
Si      -1.95028767       1.25496531       0.02280987       0.00000000
Si       0.30015954      -0.77488272      -2.18041822       0.00000000
Si       1.80618633       1.18423413       1.05745207       0.00000000
Si      -1.17825570      -2.29964301       1.08005614       0.00000000
Si       1.35255870       0.01413972       3.14728250       0.00000000
Si      -3.38287588      -0.38999889      -0.82825571       0.00000000
Si      -2.04227730      -1.38898314      -2.52386976       0.00000000
Si       2.32132500      -1.83081681       1.96566239       0.00000000
Si       1.11552291       1.05898032      -3.32509662       0.00000000
Si       2.26906668      -2.13729687      -2.04424498       0.00000000
