10
Lattice="16.28999089631971 0.0 0.0 0.0 16.28999089631971 0.0 0.0 0.0 34.3005442915855" Properties=species:S:1:pos:R:3:initial_magmoms:R:1 pbc="T T T"
Si      -1.13023278      -1.36567215      -1.55252037       0.00000000
Si       1.04938551      -1.59931962       1.39612554       0.00000000
Si      -1.67808177       1.12651866       1.36588617       0.00000000
Si       1.94056254       0.69110325      -1.46268720       0.00000000
Si       2.39845815      -0.24433371       2.76120222       0.00000000
Si      -0.67660515      -0.19557774      -3.64235080       0.00000000
Si      -0.31778532       2.46928707       2.75907558       0.00000000
Si       2.66598882       2.60516196      -0.08093904       0.00000000
Si      -0.31260510       2.22259131      -3.08654447       0.00000000
Si       2.45131920      -2.93123889       0.00514165       0.00000000
