10
Lattice="16.28999089631971 0.0 0.0 0.0 16.28999089631971 0.0 0.0 0.0 34.3005442915855" Properties=species:S:1:pos:R:3:initial_magmoms:R:1 pbc="T T T"
Si      -1.35713619      -1.35871632       1.35614138       0.00000000
Si       1.35731538       1.35568638       1.35909123       0.00000000
Si      -1.35707103       1.35759231      -1.35765060       0.00000000
Si       1.35762489      -1.35720135      -1.35761630       0.00000000
Si      -0.00177561      -2.71448415       2.71314027       0.00000000
Si      -2.71366965      -0.00275301       2.71571281       0.00000000
Si      -2.71430496      -2.71523349      -0.00072031       0.00000000
Si      -2.71360449       0.00148239      -2.71615872       0.00000000
Si       0.00078192      -2.71564074      -2.71444369       0.00000000
Si      -2.71474479       2.71538834      -0.00037731       0.00000000
