10
Lattice="16.28999089631971 0.0 0.0 0.0 16.28999089631971 0.0 0.0 0.0 34.3005442915855" Properties=species:S:1:pos:R:3:initial_magmoms:R:1 pbc="T T T"
Si      -1.19397555       1.50312717       1.35634718       0.00000000
Si      -1.36475991      -1.34993601      -1.37624151       0.00000000
Si       1.35700587       1.36102950      -1.37727052       0.00000000
Si       1.23847983      -1.45503909       1.49200591       0.00000000
Si      -2.38286862      -0.01127268       2.78139839       0.00000000
Si       2.36512881       0.35119611       2.86118150       0.00000000
Si       2.70607851      -2.69664660       0.00301845       0.00000000
Si      -2.70363501      -2.70348840      -0.02339298       0.00000000
Si       2.70146844       2.70826137      -0.02363309       0.00000000
Si      -0.00491958      -2.70646947      -2.73190268       0.00000000
