10
Lattice="16.28999089631971 0.0 0.0 0.0 16.28999089631971 0.0 0.0 0.0 34.3005442915855" Properties=species:S:1:pos:R:3:initial_magmoms:R:1 pbc="T T T"
Si      -0.03313386       2.27729313      -0.48113400       0.00000000
Si       2.26142667      -0.59575788      -1.10639897       0.00000000
Si      -0.79609230      -0.78705135       2.40779665       0.00000000
Si      -2.48657076      -0.95822667      -1.18618209       0.00000000
Si      -1.29767769       0.55617318      -2.61123330       0.00000000
Si      -2.24350767       2.61700479       0.34448056       0.00000000
Si       1.13477769      -2.40199308      -2.47557457       0.00000000
Si       1.36114353      -1.45722195       3.04167107       0.00000000
Si      -3.74696064       0.66767823       0.08533980       0.00000000
Si       3.77563104      -0.12815343       0.74041196       0.00000000
