10
Lattice="16.28999089631971 0.0 0.0 0.0 16.28999089631971 0.0 0.0 0.0 34.3005442915855" Properties=species:S:1:pos:R:3:initial_magmoms:R:1 pbc="T T T"
Si      -0.31705227      -2.07974430       1.02092197       0.00000000
Si      -2.18875698       0.75926061      -0.35936700       0.00000000
Si       0.99717606      -0.35886870      -2.13366655       0.00000000
Si       1.32862869       1.45520199       1.35734190       0.00000000
Si       3.21584148       0.67533453       0.26167900       0.00000000
Si       2.79969714       1.17718056      -1.98373879       0.00000000
Si      -0.46042056      -1.49784921       3.27237666       0.00000000
Si      -3.31262037      -1.22495913      -0.91019975       0.00000000
Si      -1.82083104       2.64165156      -1.85240193       0.00000000
Si      -3.14120070       1.09538847       1.76665052       0.00000000
