10
Lattice="16.28999089631971 0.0 0.0 0.0 16.28999089631971 0.0 0.0 0.0 34.3005442915855" Properties=species:S:1:pos:R:3:initial_magmoms:R:1 pbc="T T T"
Si      -1.23931062       1.41069207      -1.40889221       0.00000000
Si       1.34156295       1.35823013       1.37215631       0.00000000
Si      -1.37614662      -1.35293642       1.37177900       0.00000000
Si       1.60762752      -1.21706153      -1.46823562       0.00000000
Si       0.54524259       2.35892646      -2.84658802       0.00000000
Si      -2.47945203      -0.11686751      -2.80264900       0.00000000
Si       2.70669753      -2.71212515       0.00424298       0.00000000
Si       2.70871749       2.71377153       0.00655827       0.00000000
Si       2.69894349       0.00565525       2.73268816       0.00000000
Si      -2.73644307      -2.69570483      -0.02141041       0.00000000
