10
Lattice="16.28999089631971 0.0 0.0 0.0 16.28999089631971 0.0 0.0 0.0 34.3005442915855" Properties=species:S:1:pos:R:3:initial_magmoms:R:1 pbc="T T T"
Si       1.35738054      -1.35257488       1.36053185       0.00000000
Si      -1.34156295      -1.35823013      -1.37215631       0.00000000
Si      -1.35830907       1.36248094       1.35809651       0.00000000
Si       1.36715454       1.35554140      -1.36559804       0.00000000
Si      -2.58087357       0.05246194      -2.78104852       0.00000000
Si       2.71189404      -2.70942352       0.00442477       0.00000000
Si      -0.00153126      -2.70992851       2.71701623       0.00000000
Si      -2.71770957      -2.71116655      -0.00037731       0.00000000
Si       2.71360449       0.00468989       2.71691333       0.00000000
Si       2.71779102       2.71543060      -0.00072031       0.00000000
