10
Lattice="16.28999089631971 0.0 0.0 0.0 16.28999089631971 0.0 0.0 0.0 34.3005442915855" Properties=species:S:1:pos:R:3:initial_magmoms:R:1 pbc="T T T"
Si       1.35654975       1.35692279      -1.35696459       0.00000000
Si       1.35224919      -1.35737589       1.36224688       0.00000000
Si      -1.35829278      -1.35864726      -1.35679309       0.00000000
Si      -1.35777150       1.35690650       1.36008594       0.00000000
Si       2.71383255      -0.00111261      -2.71454659       0.00000000
Si      -0.00125433       2.71444994      -2.71430649       0.00000000
Si       2.71500543       2.71440107      -0.00013720       0.00000000
Si      -0.00130320      -2.71573101      -2.71444369       0.00000000
Si       2.71511946      -2.71517715       0.00010290       0.00000000
Si      -2.71647153      -0.00075911      -2.71413499       0.00000000
