10
Lattice="16.28999089631971 0.0 0.0 0.0 16.28999089631971 0.0 0.0 0.0 34.3005442915855" Properties=species:S:1:pos:R:3:initial_magmoms:R:1 pbc="T T T"
Si       1.35777150      -1.35690650      -1.36008594       0.00000000
Si      -1.35997065       1.35744570      -1.36032605       0.00000000
Si      -1.36897902      -1.34376047       1.37809374       0.00000000
Si       1.37521809       1.34506530       1.38786940       0.00000000
Si       2.71002069      -2.71428239       0.00216094       0.00000000
Si       2.71557558       2.71375110      -0.00133772       0.00000000
Si      -2.71463076       2.71593396      -0.00174933       0.00000000
Si       2.71432125       0.00001629      -2.71705053       0.00000000
Si      -2.71898019      -2.71273202      -0.00123482       0.00000000
Si      -0.00070047       2.71487511      -2.71698193       0.00000000
