10
Lattice="16.28999089631971 0.0 0.0 0.0 16.28999089631971 0.0 0.0 0.0 34.3005442915855" Properties=species:S:1:pos:R:3:initial_magmoms:R:1 pbc="T T T"
Si      -1.44179532      -0.17775159       1.89037265       0.00000000
Si       1.01799468       1.88619466      -1.08797957       0.00000000
Si      -1.85976414      -0.81177861      -1.31813635       0.00000000
Si       1.82218311      -1.61855715      -0.19469000       0.00000000
Si      -0.47397384      -2.12895543      -2.67331731       0.00000000
Si       2.25311877       0.62259240      -2.66656010       0.00000000
Si      -3.10487400      -1.61296968       0.83676225       0.00000000
Si      -2.01031632       2.08783228       2.20730986       0.00000000
Si       0.85757076      -3.45585738      -1.28338988       0.00000000
Si       3.63587913      -0.59392363      -1.25584653       0.00000000
