10
Lattice="16.28999089631971 0.0 0.0 0.0 16.28999089631971 0.0 0.0 0.0 34.3005442915855" Properties=species:S:1:pos:R:3:initial_magmoms:R:1 pbc="T T T"
Si      -0.49342410       0.60763329      -2.21667391       0.00000000
Si       0.85424760       1.70626347       1.45239703       0.00000000
Si      -1.78455321      -0.94823438       1.43769581       0.00000000
Si       2.26258326      -0.54463986      -1.79714372       0.00000000
Si      -2.72067435      -0.26787276      -1.60248802       0.00000000
Si       2.16347490       0.35484507       2.85314629       0.00000000
Si      -0.54524259      -2.35892646       2.84658802       0.00000000
Si       2.34566226       2.97724185       0.06839532       0.00000000
Si      -3.02469462      -2.47579397       0.04393902       0.00000000
Si       1.06238493      -3.57598799       1.37835240       0.00000000
