10
Lattice="16.28999089631971 0.0 0.0 0.0 16.28999089631971 0.0 0.0 0.0 34.3005442915855" Properties=species:S:1:pos:R:3:initial_magmoms:R:1 pbc="T T T"
Si      -1.35525144       1.35441576       1.35586697       0.00000000
Si       1.35836446      -1.35690813       1.35398044       0.00000000
Si       1.35917896       1.33498179      -1.38054280       0.00000000
Si      -1.35830974      -1.33620354      -1.38067314       0.00000000
Si      -2.71256260       2.70943425      -0.00648281       0.00000000
Si       0.00133904       2.71267596       2.71255716       0.00000000
Si      -2.71352371      -0.00166158       2.71245426       0.00000000
Si       2.71458841       2.71168227      -0.00761473       0.00000000
Si       2.71589161      -0.00144981       2.71214555       0.00000000
Si       0.00130320      -2.71674520       2.71248856       0.00000000
