10
Lattice="16.28999089631971 0.0 0.0 0.0 16.28999089631971 0.0 0.0 0.0 34.3005442915855" Properties=species:S:1:pos:R:3:initial_magmoms:R:1 pbc="T T T"
Si       1.35861858       1.34436483      -1.37466368       0.00000000
Si      -1.35500220      -1.36705680      -1.37404627       0.00000000
Si       1.35016407      -1.34332227       1.43208283       0.00000000
Si      -1.46759868       1.24160751       1.48898746       0.00000000
Si      -0.35279253      -2.24016822       2.92144759       0.00000000
Si      -2.39306616      -0.75549762       2.86145591       0.00000000
Si      -2.70607851       2.69664660      -0.00301845       0.00000000
Si       2.72236851       2.70676269      -0.00202373       0.00000000
Si       2.71176372      -2.73049722      -0.00092612       0.00000000
Si       0.00418653       2.70653463      -2.73639605       0.00000000
