10
Lattice="16.28999089631971 0.0 0.0 0.0 16.28999089631971 0.0 0.0 0.0 34.3005442915855" Properties=species:S:1:pos:R:3:initial_magmoms:R:1 pbc="T T T"
Si      -0.62556858       2.33364024       0.05560121       0.00000000
Si       1.94153994      -0.66780855       1.28510491       0.00000000
Si       1.11482244      -1.19811321      -1.85576338       0.00000000
Si      -2.23347303      -0.68246955       0.82489425       0.00000000
Si      -2.13977295       1.86603579      -1.79120972       0.00000000
Si      -1.90925316      -3.00578193       1.19516883       0.00000000
Si       1.37394747       3.57430293      -0.32095037       0.00000000
Si       2.77273719      -2.71536381       0.30750455       0.00000000
Si      -1.69054362       2.92679172       2.04328457       0.00000000
Si       1.34915409      -1.34048781       3.48562326       0.00000000
