10
Lattice="16.28999089631971 0.0 0.0 0.0 16.28999089631971 0.0 0.0 0.0 34.3005442915855" Properties=species:S:1:pos:R:3:initial_magmoms:R:1 pbc="T T T"
Si      -0.64207035       2.24920917      -0.29855210       0.00000000
Si      -0.22328703      -1.38666996      -1.93129323       0.00000000
Si      -0.73443465      -0.78222951       2.13695940       0.00000000
Si       2.38089753       0.11160279       0.31786332       0.00000000
Si       2.63692746      -1.83492189       1.75598305       0.00000000
Si       1.74962745      -0.95889456      -3.13946197       0.00000000
Si       0.03316644      -3.55493412      -1.10773670       0.00000000
Si       1.18384317      -0.87229692       3.43677926       0.00000000
Si       1.00396899       3.65013288       0.47434249       0.00000000
Si       2.95828029       2.36547090       0.82739819       0.00000000
