10
Lattice="16.28999089631971 0.0 0.0 0.0 16.28999089631971 0.0 0.0 0.0 34.3005442915855" Properties=species:S:1:pos:R:3:initial_magmoms:R:1 pbc="T T T"
Si      -1.65434724      -0.21207951      -1.68422627       0.00000000
Si       0.45304119      -2.39474403       0.15105968       0.00000000
Si      -1.13288805       0.45064656       2.17266629       0.00000000
Si       1.96617042       1.30666977      -1.09888715       0.00000000
Si       0.58855770       2.47352247      -2.71478670       0.00000000
Si      -0.51794055       0.52867566      -3.68851109       0.00000000
Si      -3.23296227       1.57563396      -1.42278737       0.00000000
Si       0.46920087       1.49517765       3.58981263       0.00000000
Si       3.18505338       2.17983006       0.83075965       0.00000000
Si       2.01640878      -2.80958517       1.94130899       0.00000000
