10
Lattice="16.28999089631971 0.0 0.0 0.0 16.28999089631971 0.0 0.0 0.0 34.3005442915855" Properties=species:S:1:pos:R:3:initial_magmoms:R:1 pbc="T T T"
Si       1.81369602       1.02463353      -1.06115653       0.00000000
Si      -0.96461235      -1.83730023      -1.08869988       0.00000000
Si       0.88122384      -1.15919640       1.87644662       0.00000000
Si      -1.82218311       1.61855715       0.19469000       0.00000000
Si       0.43093566       2.24114955      -2.47187011       0.00000000
Si      -2.29615695      -0.51039828      -2.47862732       0.00000000
Si      -1.11829221      -2.39985909       2.25299821       0.00000000
Si      -0.80418843       3.50475182      -0.89328957       0.00000000
Si      -2.63249658      -2.86746354       0.40618727       0.00000000
Si      -3.68194725       0.80677854      -1.12344636       0.00000000
