10
Lattice="16.28999089631971 0.0 0.0 0.0 16.28999089631971 0.0 0.0 0.0 34.3005442915855" Properties=species:S:1:pos:R:3:initial_magmoms:R:1 pbc="T T T"
Si       1.51420437       0.46760445       1.84681094       0.00000000
Si       1.66788423       1.03016331      -1.49488716       0.00000000
Si      -1.12664898      -1.80623520      -1.36917559       0.00000000
Si      -2.26142667       0.59575788       1.10639897       0.00000000
Si       2.13977295      -1.86603579       1.79120972       0.00000000
Si      -0.09370008      -2.54850534       2.61610398       0.00000000
Si      -2.36512881      -0.35119611      -2.86118150       0.00000000
Si      -2.29456053       2.87305101       0.62526497       0.00000000
Si       0.33633963       2.35706526      -2.88481459       0.00000000
Si       2.63249658       2.86746354      -0.40618727       0.00000000
