10
Lattice="16.28999089631971 0.0 0.0 0.0 16.28999089631971 0.0 0.0 0.0 34.3005442915855" Properties=species:S:1:pos:R:3:initial_magmoms:R:1 pbc="T T T"
Si      -0.64519803      -1.87274727      -1.32931834       0.00000000
Si      -0.12452076      -0.95944842       2.24253654       0.00000000
Si      -2.37768840       0.57203964       0.61867926       0.00000000
Si       1.90148283       0.80790255      -1.70538971       0.00000000
Si      -2.74168845      -1.84612941       0.06287293       0.00000000
Si       0.45242217       2.18285029      -2.95286691       0.00000000
Si       0.60090552       0.95461029       3.62428470       0.00000000
Si       2.58647733       1.73978829       2.31549384       0.00000000
Si      -3.14010927       2.15397783      -0.99914111       0.00000000
Si       3.23638317       2.24750688      -0.33587112       0.00000000
