10
Lattice="16.28999089631971 0.0 0.0 0.0 16.28999089631971 0.0 0.0 0.0 34.3005442915855" Properties=species:S:1:pos:R:3:initial_magmoms:R:1 pbc="T T T"
Si       1.62175095       1.08302273      -1.34597267       0.00000000
Si       1.18600974      -1.44997929       1.45215208       0.00000000
Si      -0.62377668      -1.90338129      -1.34940273       0.00000000
Si      -1.50825852       1.24227377       1.43418202       0.00000000
Si      -0.08420301       2.24717129      -2.71116940       0.00000000
Si      -1.40915016       0.34278884      -3.21610799       0.00000000
Si       3.24399060      -0.97329166      -1.32899389       0.00000000
Si       2.47801851      -2.78877537       0.07966992       0.00000000
Si      -2.60934849      -2.68855929      -0.04061187       0.00000000
Si       2.55098142      -0.10986953       2.80002017       0.00000000
