10
Lattice="16.28999089631971 0.0 0.0 0.0 16.28999089631971 0.0 0.0 0.0 34.3005442915855" Properties=species:S:1:pos:R:3:initial_magmoms:R:1 pbc="T T T"
Si      -1.36497168      -1.34010975      -1.34786808       0.00000000
Si       1.35992178      -1.35464698       1.35943423       0.00000000
Si      -1.35521397       1.35890365       1.36084055       0.00000000
Si       1.35751086       1.38226351      -1.37628267       0.00000000
Si      -2.55098142       0.10986953      -2.80002017       0.00000000
Si       2.58697322      -0.03518803      -2.80541221       0.00000000
Si      -0.07296291      -2.67890583      -2.72035025       0.00000000
Si      -2.70860346       2.71203250      -0.00096042       0.00000000
Si      -2.71450044      -2.71282161       0.00418467       0.00000000
Si      -2.71278999       0.00129180       2.71667323       0.00000000
