10
Lattice="16.28999089631971 0.0 0.0 0.0 16.28999089631971 0.0 0.0 0.0 34.3005442915855" Properties=species:S:1:pos:R:3:initial_magmoms:R:1 pbc="T T T"
Si      -1.35338949       1.35312885      -1.36180097       0.00000000
Si      -1.35757602      -1.35761186       1.35583267       0.00000000
Si       1.35751086       1.35790182       1.35600418       0.00000000
Si       1.35521397      -1.35890365      -1.36084055       0.00000000
Si      -0.00975771      -2.69901341      -2.70870864       0.00000000
Si      -0.00026064      -2.71430619       2.71290017       0.00000000
Si       2.71468681       0.00000000       2.71317457       0.00000000
Si      -2.71485882       0.00042354       2.71341467       0.00000000
Si      -0.00003258       2.71500543       2.71344897       0.00000000
Si      -2.71379997      -2.71487663      -0.00054881       0.00000000
