10
Lattice="16.28999089631971 0.0 0.0 0.0 16.28999089631971 0.0 0.0 0.0 34.3005442915855" Properties=species:S:1:pos:R:3:initial_magmoms:R:1 pbc="T T T"
Si      -1.35622395      -1.35726477      -1.35638148       0.00000000
Si       1.35757602       1.35761186      -1.35583267       0.00000000
Si       1.35731538      -1.35669434       1.35706749       0.00000000
Si      -1.35728280       1.35803540       1.35758200       0.00000000
Si      -0.00171045      -2.71411341      -2.71248856       0.00000000
Si      -2.71383255       0.00111261       2.71454659       0.00000000
Si       0.00418653       2.71074071      -2.71763364       0.00000000
Si       2.71407690       0.00007819       2.71440939       0.00000000
Si       0.00128691      -2.71406454       2.71464949       0.00000000
Si       2.71278999      -0.00129180      -2.71667323       0.00000000
