10
Lattice="16.28999089631971 0.0 0.0 0.0 16.28999089631971 0.0 0.0 0.0 34.3005442915855" Properties=species:S:1:pos:R:3:initial_magmoms:R:1 pbc="T T T"
Si       1.35682668       1.35801585      -1.35641578       0.00000000
Si      -1.35806472      -1.35744570      -1.35634718       0.00000000
Si       1.35814617      -1.35624024       1.35861102       0.00000000
Si      -1.35456237       1.35666378       1.36238408       0.00000000
Si       2.71280628      -2.71472850       0.00003430       0.00000000
Si       2.71438641       0.00076563      -2.71386058       0.00000000
Si      -0.00110772      -2.71446786      -2.71440939       0.00000000
Si       0.01612710       2.71938744       2.70943581       0.00000000
Si      -0.00021177       2.71479366      -2.71444369       0.00000000
Si      -2.71566029      -0.00034209      -2.71399778       0.00000000
