10
Lattice="16.28999089631971 0.0 0.0 0.0 16.28999089631971 0.0 0.0 0.0 34.3005442915855" Properties=species:S:1:pos:R:3:initial_magmoms:R:1 pbc="T T T"
Si       1.34810731       1.35584260       1.35521526       0.00000000
Si      -1.35778779       1.35498738      -1.35775350       0.00000000
Si       1.35928551      -1.35808021      -1.35658728       0.00000000
Si      -1.35913986      -1.35117325       1.39191687       0.00000000
Si       2.57693858      -0.12489463       2.67462074       0.00000000
Si       0.00039814       2.71252104      -2.71482100       0.00000000
Si       2.71802627       2.71090833       0.00240104       0.00000000
Si      -2.71454931      -0.00178515      -2.71509540       0.00000000
Si      -0.03438819       2.71706595       2.71259146       0.00000000
Si       2.71577825      -0.00207608      -2.71482100       0.00000000
