10
Lattice="16.28999089631971 0.0 0.0 0.0 16.28999089631971 0.0 0.0 0.0 34.3005442915855" Properties=species:S:1:pos:R:3:initial_magmoms:R:1 pbc="T T T"
Si       2.04662545       0.83989611       0.74082357       0.00000000
Si      -1.80540441       1.24129800       0.82780980       0.00000000
Si       0.21623346       0.55078119      -2.34176807       0.00000000
Si       0.10373472      -2.35371604       0.60667407       0.00000000
Si      -0.40138560      -2.84150868      -1.65273835       0.00000000
Si      -3.24120501       0.20178423      -0.72243847       0.00000000
Si      -2.15883225      -1.31127984      -2.22058418       0.00000000
Si       3.38450392      -0.40902561      -0.77169408       0.00000000
Si       2.53801688       0.77384016      -2.60464759       0.00000000
Si      -2.04784848       0.33257664       3.08561009       0.00000000
