10
Lattice="16.28999089631971 0.0 0.0 0.0 16.28999089631971 0.0 0.0 0.0 34.3005442915855" Properties=species:S:1:pos:R:3:initial_magmoms:R:1 pbc="T T T"
Si      -1.32494715      -1.90438245      -0.50493859       0.00000000
Si       0.24244407       0.90872136      -2.25780029       0.00000000
Si      -1.24186815       1.61749926       1.36060045       0.00000000
Si       1.70595396      -1.16414856       1.36519673       0.00000000
Si       0.08420301      -2.24717129       2.71116940       0.00000000
Si       2.04784848      -0.33257664      -3.08561009       0.00000000
Si       2.80067454       0.53431200       2.58619187       0.00000000
Si       0.11033217      -3.64283398      -1.28959828       0.00000000
Si      -2.73328281       0.34652088       2.74460216       0.00000000
Si      -2.07327717       3.39758901       0.06465656       0.00000000
