10
Lattice="16.28999089631971 0.0 0.0 0.0 16.28999089631971 0.0 0.0 0.0 34.3005442915855" Properties=species:S:1:pos:R:3:initial_magmoms:R:1 pbc="T T T"
Si       1.34548884       1.35285192       1.37576130       0.00000000
Si      -1.30693041       1.38468258      -1.38326969       0.00000000
Si      -1.36637262      -1.36301688       1.37689322       0.00000000
Si       1.50772095      -1.18369656      -1.54714407       0.00000000
Si      -2.53482174      -0.10050930      -2.77273548       0.00000000
Si       2.69974170      -2.69278587       0.00157097       0.00000000
Si       2.70557352       2.72655504      -0.01726690       0.00000000
Si      -2.72044629       2.71811682       0.01175480       0.00000000
Si      -2.71700910      -2.72290608       0.01201549       0.00000000
Si       2.70280000      -0.00216657       2.73811108       0.00000000
