10
Lattice="16.28999089631971 0.0 0.0 0.0 16.28999089631971 0.0 0.0 0.0 34.3005442915855" Properties=species:S:1:pos:R:3:initial_magmoms:R:1 pbc="T T T"
Si       1.35834898       1.33599177      -1.38152379       0.00000000
Si      -1.36094805      -1.37510406      -1.37860825       0.00000000
Si       1.34996859      -1.39175244       1.38495385       0.00000000
Si      -1.22432382       1.53792261       1.47317490       0.00000000
Si      -2.52099153      -0.02433726       2.78777830       0.00000000
Si       2.70263873       2.70505224       0.01440624       0.00000000
Si      -2.71226871       2.69873172      -0.00785483       0.00000000
Si       2.69251613      -2.73465117      -0.03138502       0.00000000
Si      -0.00019548       2.69575065      -2.74003191       0.00000000
Si       2.71355303      -0.01817964      -2.74178124       0.00000000
