10
Lattice="16.28999089631971 0.0 0.0 0.0 16.28999089631971 0.0 0.0 0.0 34.3005442915855" Properties=species:S:1:pos:R:3:initial_magmoms:R:1 pbc="T T T"
Si       2.09336274      -0.54211491       1.01903544       0.00000000
Si      -1.45308429       0.96262497       1.68079621       0.00000000
Si      -0.25602993       1.94652468      -1.43811972       0.00000000
Si      -0.65479284      -1.82855250      -1.53639084       0.00000000
Si      -3.37136211       1.05269238       0.38097636       0.00000000
Si      -2.63692746       1.83492189      -1.75598305       0.00000000
Si       3.66919448      -0.58635855      -0.85514735       0.00000000
Si       0.86952762       1.51782075      -3.44374227       0.00000000
Si       1.77634305      -2.70687672       2.11507564       0.00000000
Si      -0.34658604       2.90747178       2.65452061       0.00000000
