10
Lattice="16.28999089631971 0.0 0.0 0.0 16.28999089631971 0.0 0.0 0.0 34.3005442915855" Properties=species:S:1:pos:R:3:initial_magmoms:R:1 pbc="T T T"
Si      -2.09336274       0.54211491      -1.01903544       0.00000000
Si       0.65230047       1.72387296       1.56969669       0.00000000
Si      -0.31701969      -2.16476181       1.09604020       0.00000000
Si       1.57583174      -0.04424364      -1.87418279       0.00000000
Si      -0.76435938      -3.56939964      -0.74912431       0.00000000
Si       3.40166870       1.27630521      -1.11655194       0.00000000
Si       2.74296951       1.00408302       2.43396798       0.00000000
Si      -3.54644703       1.50473988       0.66176077       0.00000000
Si       1.07136072       3.79996830       0.38656735       0.00000000
Si      -2.74815558      -1.28643759      -2.55542628       0.00000000
