10
Lattice="16.28999089631971 0.0 0.0 0.0 16.28999089631971 0.0 0.0 0.0 34.3005442915855" Properties=species:S:1:pos:R:3:initial_magmoms:R:1 pbc="T T T"
Si      -1.40258529      -1.33247313      -1.29261673       0.00000000
Si       1.04080950       1.46776158      -1.49529876       0.00000000
Si       0.96112533      -1.88975403       0.99012006       0.00000000
Si      -1.21508739       1.06776063       1.71187252       0.00000000
Si      -2.43846639      -2.93425254       0.14008350       0.00000000
Si       1.45545190      -1.46320038       3.25430026       0.00000000
Si      -0.11319921      -2.68680744      -2.80849584       0.00000000
Si       3.17453723      -2.26823589       0.35741187       0.00000000
Si      -2.38086495       2.97452209       0.94789607       0.00000000
Si      -2.84221404      -0.25550865      -2.71657033       0.00000000
