10
Lattice="16.28999089631971 0.0 0.0 0.0 16.28999089631971 0.0 0.0 0.0 34.3005442915855" Properties=species:S:1:pos:R:3:initial_magmoms:R:1 pbc="T T T"
Si      -0.70358139      -0.04476492      -2.19729410       0.00000000
Si       2.13978924      -0.98730432       0.13689355       0.00000000
Si      -1.37152026      -1.33768593       1.38581136       0.00000000
Si       0.22467168       2.35342837       0.22250776       0.00000000
Si      -2.64635937       0.44507538       2.30173931       0.00000000
Si       1.06797240       1.27467621      -3.14066249       0.00000000
Si       1.97767116       2.67227091      -1.43691920       0.00000000
Si       1.72072899      -3.06339966       1.32002288       0.00000000
Si       3.52903858       0.62902206       1.17273626       0.00000000
Si      -1.28096415      -2.29863303      -2.70682897       0.00000000
