10
Lattice="16.28999089631971 0.0 0.0 0.0 16.28999089631971 0.0 0.0 0.0 34.3005442915855" Properties=species:S:1:pos:R:3:initial_magmoms:R:1 pbc="T T T"
Si      -1.82914062       0.89042769      -1.31011002       0.00000000
Si       1.94157803       0.76595580      -1.25769876       0.00000000
Si       0.09213328      -2.41269561       0.45959325       0.00000000
Si      -0.53384127       0.79905708       2.34283139       0.00000000
Si       1.47556348      -2.24691228       2.50459284       0.00000000
Si       0.92411766       2.80409544       2.25756019       0.00000000
Si       1.81692695      -0.53175447      -3.23286241       0.00000000
Si      -1.95449217      -3.25259172      -0.28123032       0.00000000
Si       3.80745092       0.46736010       0.14893305       0.00000000
Si      -3.82111440       0.40351959      -0.01979143       0.00000000
