10
Lattice="16.28999089631971 0.0 0.0 0.0 16.28999089631971 0.0 0.0 0.0 34.3005442915855" Properties=species:S:1:pos:R:3:initial_magmoms:R:1 pbc="T T T"
Si       0.95559795       1.84090032      -0.97722305       0.00000000
Si       1.24378108      -1.23341364       1.54146732       0.00000000
Si      -2.27483841      -0.57813210      -0.72809806       0.00000000
Si      -1.23838716       2.90041821      -0.15009927       0.00000000
Si      -3.10603566       1.46942316       0.24950230       0.00000000
Si       1.62724280       0.66052692      -2.97334434       0.00000000
Si      -1.45993116      -1.69013637      -2.71187115       0.00000000
Si      -0.52685625      -2.32345899       2.67520385       0.00000000
Si      -0.47407665      -3.39812658      -1.37713332       0.00000000
Si       2.02409978       0.27391635       3.31357163       0.00000000
