10
Lattice="16.28999089631971 0.0 0.0 0.0 16.28999089631971 0.0 0.0 0.0 34.3005442915855" Properties=species:S:1:pos:R:3:initial_magmoms:R:1 pbc="T T T"
Si      -1.75677876       0.11065797       1.52712969       0.00000000
Si       2.22628914       0.70551990       0.32935401       0.00000000
Si      -0.76927896       1.56030507      -1.60176771       0.00000000
Si       0.63863316      -2.29167720      -0.24713556       0.00000000
Si       2.77801515      -1.38606723      -0.73509538       0.00000000
Si       2.08292085       1.28741499       2.58080870       0.00000000
Si      -2.48836429       2.36534058       1.29512068       0.00000000
Si      -1.10848563      -3.10474368      -1.62495489       0.00000000
Si      -2.98269085       1.93878693      -0.96905952       0.00000000
Si       0.35458443       3.54452481      -1.05093496       0.00000000
