10
Lattice="16.28999089631971 0.0 0.0 0.0 16.28999089631971 0.0 0.0 0.0 34.3005442915855" Properties=species:S:1:pos:R:3:initial_magmoms:R:1 pbc="T T T"
Si       1.22883126      -1.48073724       1.31940547       0.00000000
Si      -1.34810731      -1.35584260      -1.35521526       0.00000000
Si       1.36991895       1.35506573      -1.35281422       0.00000000
Si      -1.38249550       1.36122335       1.35737620       0.00000000
Si       2.53944321      -0.11295649       2.73183408       0.00000000
Si      -2.70724717      -2.70701586       0.03670160       0.00000000
Si      -2.70589510      -0.00085523      -2.71296877       0.00000000
Si       0.01117820      -2.71392282      -2.71180255       0.00000000
Si       0.00844148       2.71396124      -2.71193975       0.00000000
Si       2.72466051      -0.00158339      -2.71355188       0.00000000
