10
Lattice="16.28999089631971 0.0 0.0 0.0 16.28999089631971 0.0 0.0 0.0 34.3005442915855" Properties=species:S:1:pos:R:3:initial_magmoms:R:1 pbc="T T T"
Si       1.69743429       1.23874047      -1.18342916       0.00000000
Si      -1.27250964       1.35545832       1.59687988       0.00000000
Si       1.44044325      -1.34009685       1.59780943       0.00000000
Si      -1.57817520      -1.36505313      -1.64267941       0.00000000
Si      -2.66238059      -2.76988644       0.05771756       0.00000000
Si      -2.75817393       2.68204817       0.18620404       0.00000000
Si      -0.06902073       0.64397628      -3.88343232       0.00000000
Si      -2.62766822       0.00350235       2.98928382       0.00000000
Si       3.11852502      -2.46661551       0.23192326       0.00000000
Si       2.80591992      -0.24402420      -2.85462121       0.00000000
