10
Lattice="16.28999089631971 0.0 0.0 0.0 16.28999089631971 0.0 0.0 0.0 34.3005442915855" Properties=species:S:1:pos:R:3:initial_magmoms:R:1 pbc="T T T"
Si       1.59625710      -0.36795852       1.63068309       0.00000000
Si      -0.01466100       2.22805565      -0.71969442       0.00000000
Si       0.99266373      -0.38840247      -2.13548448       0.00000000
Si      -2.08595405      -0.83909790       0.80863578       0.00000000
Si      -0.51078924      -2.33772903      -2.39462524       0.00000000
Si       1.81749159      -2.64547971       1.90567070       0.00000000
Si      -1.55426148       2.32766900      -2.48637924       0.00000000
Si       0.71588034       0.11808621       3.77985349       0.00000000
Si      -1.94173542      -3.18832767       1.12660201       0.00000000
Si       3.62349873       0.82451739       1.28445320       0.00000000
