10
Lattice="16.28999089631971 0.0 0.0 0.0 16.28999089631971 0.0 0.0 0.0 34.56954931742767" Properties=species:S:1:pos:R:3:initial_magmoms:R:1 pbc="T T T"
Si      -1.35578247      -1.35689072      -1.35761610       0.00000000
Si      -1.35728176       1.35746362       1.35758153       0.00000000
Si       1.35797513      -1.35736209       1.35744325       0.00000000
Si       1.35742126       1.35796861      -1.35744325       0.00000000
Si      -0.00108166       2.71422514       2.71495564       0.00000000
Si       2.71512761       0.00031603       2.71422968       0.00000000
Si      -2.71423884      -2.71525534       0.00003457       0.00000000
Si      -2.71476012       2.71497448       0.00020742       0.00000000
Si       0.00068581      -2.71465261       2.71533591       0.00000000
Si       2.71517647       2.71489303      -0.00006914       0.00000000
