10
Lattice="16.28999089631971 0.0 0.0 0.0 16.28999089631971 0.0 0.0 0.0 34.56954931742767" Properties=species:S:1:pos:R:3:initial_magmoms:R:1 pbc="T T T"
Si       1.34040636       1.35306369       1.37296499       0.00000000
Si      -1.35847197       1.35558864      -1.35986312       0.00000000
Si       1.35619137      -1.35766399      -1.36055451       0.00000000
Si      -1.36221867      -1.34762772       1.37697506       0.00000000
Si       2.71215468       2.71598283       0.00179762       0.00000000
Si       2.71334385      -2.71525244       0.00027656       0.00000000
Si       2.71401174      -0.00118917      -2.71716809       0.00000000
Si      -0.00109143       2.71438641      -2.71685697       0.00000000
Si      -2.71831230      -2.71363792       0.00024199       0.00000000
Si      -0.00073305      -2.71589096      -2.71751379       0.00000000
