10
Lattice="16.28999089631971 0.0 0.0 0.0 16.28999089631971 0.0 0.0 0.0 34.56954931742767" Properties=species:S:1:pos:R:3:initial_magmoms:R:1 pbc="T T T"
Si      -1.80703341       1.43034345       0.44425353       0.00000000
Si      -1.00742247      -1.95102072       0.84591734       0.00000000
Si       1.96478577       0.69406803       1.11742674       0.00000000
Si      -0.20430918      -3.24198693      -1.04742336       0.00000000
Si      -3.39472197       0.16545753      -0.83789720       0.00000000
Si      -1.63717758       1.41574761       2.88652441       0.00000000
Si      -0.35034903      -2.04643125      -3.14351458       0.00000000
Si      -2.11409991      -0.23526018      -3.12498530       0.00000000
Si      -3.36193020      -1.67226624       0.67787467       0.00000000
Si       3.82070547       0.15576498      -0.38631493       0.00000000
