10
Lattice="16.28999089631971 0.0 0.0 0.0 16.28999089631971 0.0 0.0 0.0 34.56954931742767" Properties=species:S:1:pos:R:3:initial_magmoms:R:1 pbc="T T T"
Si       1.00742247       1.95102072      -0.84591734       0.00000000
Si      -2.35450773       0.27875448      -0.16804267       0.00000000
Si       0.39534201      -0.36616662       2.33227052       0.00000000
Si       0.80311329      -1.29096621      -1.89334070       0.00000000
Si      -0.79961094       3.38136417      -0.40166382       0.00000000
Si      -2.38729950       2.11647825      -1.68381455       0.00000000
Si      -0.91834875      -3.10202325      -1.68346885       0.00000000
Si       0.81236601       1.83317886       3.15046307       0.00000000
Si      -3.14771670       0.74306835       2.05360522       0.00000000
Si      -1.80644697      -0.86547141       3.28127432       0.00000000
