10
Lattice="16.28999089631971 0.0 0.0 0.0 16.28999089631971 0.0 0.0 0.0 34.56954931742767" Properties=species:S:1:pos:R:3:initial_magmoms:R:1 pbc="T T T"
Si      -1.35741312      -1.35705474       1.35695928       0.00000000
Si       1.35720135       1.35762489       1.35689014       0.00000000
Si       1.35754344      -1.35777150      -1.35986312       0.00000000
Si      -1.35845568       1.35721764      -1.36259412       0.00000000
Si       2.71327869       2.71578735       0.00013828       0.00000000
Si      -2.71471221       0.00004887       2.71440253       0.00000000
Si       0.00022806       2.71505430       2.71457538       0.00000000
Si      -0.00003258      -2.71531494       2.71433339       0.00000000
Si      -2.71518462      -2.71490769      -0.00034570       0.00000000
Si       2.71555929       0.00003258       2.71460995       0.00000000
