10
Lattice="16.28999089631971 0.0 0.0 0.0 16.28999089631971 0.0 0.0 0.0 34.56954931742767" Properties=species:S:1:pos:R:3:initial_magmoms:R:1 pbc="T T T"
Si       0.79860096      -1.17592623       1.82599918       0.00000000
Si       1.20050784       1.49374413      -1.32992588       0.00000000
Si      -2.35413306       0.15578127       0.24627361       0.00000000
Si      -0.33358662      -1.02060108      -2.15741764       0.00000000
Si       1.99730061      -0.62144721      -2.39332038       0.00000000
Si      -0.29488158      -3.18573756       1.20302099       0.00000000
Si      -0.46473741      -3.17114172      -1.23924990       0.00000000
Si      -0.33726816      -0.10265958       3.54711430       0.00000000
Si      -0.62413506       2.82411585      -2.13072993       0.00000000
Si       3.12533424      -0.77730993       1.79554339       0.00000000
