10
Lattice="16.28999089631971 0.0 0.0 0.0 16.28999089631971 0.0 0.0 0.0 34.56954931742767" Properties=species:S:1:pos:R:3:initial_magmoms:R:1 pbc="T T T"
Si      -0.03885165       1.18338705       2.01149949       0.00000000
Si       2.32569072      -0.31224672      -0.24063877       0.00000000
Si      -0.54657837       1.38510612      -1.84739775       0.00000000
Si      -0.99131166      -2.20128399      -0.27565774       0.00000000
Si      -1.97289819      -0.26057484      -2.65093280       0.00000000
Si       2.07570438       2.21542371       1.69947456       0.00000000
Si      -0.83061081      -2.34518985      -2.62652669       0.00000000
Si       2.70917361      -2.08872009       1.31143116       0.00000000
Si       2.64575664      -0.31185576      -2.54079416       0.00000000
Si       1.28739870       1.56325356      -3.30384824       0.00000000
