10
Lattice="16.28999089631971 0.0 0.0 0.0 16.28999089631971 0.0 0.0 0.0 34.56954931742767" Properties=species:S:1:pos:R:3:initial_magmoms:R:1 pbc="T T T"
Si      -1.29448485      -1.46766384       1.43093815       0.00000000
Si      -0.55693881       0.03225420      -2.36224233       0.00000000
Si       2.24679825      -0.92196513       0.04203660       0.00000000
Si       0.34883406       2.25033318       1.19271926       0.00000000
Si       2.52726318      -1.27057113      -2.22178618       0.00000000
Si       1.57006278       0.59383566      -3.26509576       0.00000000
Si       2.82157461       2.42334927       0.89870508       0.00000000
Si      -3.04313490      -2.31568866      -0.21962047       0.00000000
Si      -2.29776966       1.59260814      -2.62058072       0.00000000
Si      -2.29842126      -0.14647968       3.19329476       0.00000000
