10
Lattice="16.28999089631971 0.0 0.0 0.0 16.28999089631971 0.0 0.0 0.0 34.56954931742767" Properties=species:S:1:pos:R:3:initial_magmoms:R:1 pbc="T T T"
Si       1.28067093       1.46799797      -1.33471518       0.00000000
Si       1.33524243      -1.35003375       1.43937313       0.00000000
Si      -1.37570679       1.33838448       1.43218612       0.00000000
Si      -0.86960907      -1.59466068      -1.61265451       0.00000000
Si      -0.58072221       2.08974214      -2.76879917       0.00000000
Si       2.68045434      -2.62508463       0.02009529       0.00000000
Si      -2.63939214      -2.66662413      -0.14693795       0.00000000
Si      -2.73910486       2.56969441      -0.03573802       0.00000000
Si       2.70547578       2.69419237       0.06781167       0.00000000
Si      -2.08959975       0.13836726      -3.21059826       0.00000000
