10
Lattice="16.28999089631971 0.0 0.0 0.0 16.28999089631971 0.0 0.0 0.0 34.56954931742767" Properties=species:S:1:pos:R:3:initial_magmoms:R:1 pbc="T T T"
Si       1.61455077      -0.96686037      -1.40366276       0.00000000
Si      -1.12580190      -1.79108550       1.11047825       0.00000000
Si      -1.08514206       2.02026041       0.72015325       0.00000000
Si      -1.34680833       1.61403831      -1.64253848       0.00000000
Si       2.58229080      -0.25387965       0.89614693       0.00000000
Si       0.69884100      -3.12145722       1.91128231       0.00000000
Si       0.06216264      -2.31599817      -3.03289197       0.00000000
Si      -2.07775692      -0.84730806       3.08934407       0.00000000
Si      -2.48860701      -2.97030231      -0.45531579       0.00000000
Si       0.63631998       3.83131745       0.51028140       0.00000000
