10
Lattice="16.28999089631971 0.0 0.0 0.0 16.28999089631971 0.0 0.0 0.0 34.56954931742767" Properties=species:S:1:pos:R:3:initial_magmoms:R:1 pbc="T T T"
Si       1.27392687      -1.40304141      -1.39661057       0.00000000
Si      -1.46414520       1.30468239      -1.39170169       0.00000000
Si      -1.01563263      -1.85891706       1.15707803       0.00000000
Si       1.55238813       1.34913780       1.62922920       0.00000000
Si      -2.55076965      -0.65430414       2.57757618       0.00000000
Si       2.65424373       2.69044990       0.02502837       0.00000000
Si       2.66369193      -2.68952787       0.10059744       0.00000000
Si       2.61278568      -0.05947479      -2.77050894       0.00000000
Si      -0.06216264       2.31599817       3.03289197       0.00000000
Si      -0.10448406       2.66177605      -2.76739768       0.00000000
