10
Lattice="16.28999089631971 0.0 0.0 0.0 16.28999089631971 0.0 0.0 0.0 34.56954931742767" Properties=species:S:1:pos:R:3:initial_magmoms:R:1 pbc="T T T"
Si      -1.79334981       0.95036693       1.13872159       0.00000000
Si       0.96575265      -1.85042997       1.08154352       0.00000000
Si      -1.13094954       0.45445842      -2.03016706       0.00000000
Si       1.03436613       1.16406615      -2.29341432       0.00000000
Si      -0.36854496       2.17656133       2.54124844       0.00000000
Si       0.42357258       3.20113880      -0.97949416       0.00000000
Si       2.33163657      -0.41866929       2.53287223       0.00000000
Si       1.33468857       3.15524987       1.22067145       0.00000000
Si      -1.55113380      -1.60963119      -2.95853282       0.00000000
Si       3.14370936       1.49856827       1.32050986       0.00000000
