10
Lattice="16.28999089631971 0.0 0.0 0.0 16.28999089631971 0.0 0.0 0.0 34.56954931742767" Properties=species:S:1:pos:R:3:initial_magmoms:R:1 pbc="T T T"
Si      -1.31595507      -1.95111913      -0.43816928       0.00000000
Si      -0.82108116       1.82052805      -1.33877568       0.00000000
Si      -0.03637557       0.85026307       2.29472797       0.00000000
Si       2.05936551      -0.32298020      -1.34938854       0.00000000
Si      -0.02928942       0.34559887      -3.04951993       0.00000000
Si       0.19481211      -1.30788826       3.41326093       0.00000000
Si       1.95913314       2.25483574       2.27042556       0.00000000
Si       3.89469465      -0.49849355       0.39132752       0.00000000
Si      -3.26192589       2.13407797      -0.82403481       0.00000000
Si      -1.26164421      -3.67779397       1.14822822       0.00000000
