10
Lattice="16.28999089631971 0.0 0.0 0.0 16.28999089631971 0.0 0.0 0.0 34.56954931742767" Properties=species:S:1:pos:R:3:initial_magmoms:R:1 pbc="T T T"
Si       0.49780611      -1.11677724      -1.98173509       0.00000000
Si      -0.95158035       2.02264785      -0.79316418       0.00000000
Si       2.24979561       0.38716443       0.69201362       0.00000000
Si      -1.89483651      -1.06214058       1.07708405       0.00000000
Si      -1.95110217       0.34088454       3.03672919       0.00000000
Si       1.15447230       0.72547515      -3.36434499       0.00000000
Si      -3.65853852      -0.34953453      -0.40581217       0.00000000
Si       2.25971622      -2.55215430      -1.43498279       0.00000000
Si      -1.22968323      -2.67174734      -2.30053565       0.00000000
Si      -3.19065714       1.95522354      -0.20724456       0.00000000
