10
Lattice="16.28999089631971 0.0 0.0 0.0 16.28999089631971 0.0 0.0 0.0 34.56954931742767" Properties=species:S:1:pos:R:3:initial_magmoms:R:1 pbc="T T T"
Si      -1.48577832       1.60621029      -0.88715884       0.00000000
Si       0.05626566      -1.40302512      -1.95964514       0.00000000
Si       1.96129971       1.35757602       0.36913385       0.00000000
Si       0.90642447       0.40739661       2.35626180       0.00000000
Si       1.95110217      -0.34088454      -3.03672919       0.00000000
Si      -0.69245532      -1.14717438       3.44164254       0.00000000
Si      -0.77589270       3.62025702       0.01023259       0.00000000
Si      -1.23955497       1.61433900      -3.24397375       0.00000000
Si      -0.08166177      -3.18424702       2.12772238       0.00000000
Si       1.47877362       3.52895157      -0.49009277       0.00000000
