10
Lattice="16.28999089631971 0.0 0.0 0.0 16.28999089631971 0.0 0.0 0.0 34.56954931742767" Properties=species:S:1:pos:R:3:initial_magmoms:R:1 pbc="T T T"
Si       2.06692407      -1.14331365       0.49966855       0.00000000
Si      -1.50418602       1.56962295       1.07379994       0.00000000
Si       1.05487524       0.95017941      -1.98712794       0.00000000
Si      -1.59887979      -1.55457099       1.08538075       0.00000000
Si      -0.90642447      -0.40739661      -2.35626180       0.00000000
Si      -3.37864374       0.13367574       1.07494074       0.00000000
Si      -0.68776380      -1.60045992       3.28554636       0.00000000
Si      -0.98808624      -3.59164364      -0.22853942       0.00000000
Si       3.28184856       0.48728277       1.77815490       0.00000000
Si       1.38458484      -3.44081941       1.09405771       0.00000000
