10
Lattice="16.28999089631971 0.0 0.0 0.0 16.28999089631971 0.0 0.0 0.0 34.56954931742767" Properties=species:S:1:pos:R:3:initial_magmoms:R:1 pbc="T T T"
Si       1.30945536      -1.35957969       1.42914054       0.00000000
Si       1.29622788       1.51049025      -1.32707185       0.00000000
Si      -1.06937334      -1.75835889      -1.25300385       0.00000000
Si      -1.42721577       1.33898913       1.41256443       0.00000000
Si       0.73964745      -3.41504049      -1.15316545       0.00000000
Si      -2.74251924       2.57810427      -0.21211542       0.00000000
Si      -0.79768872       3.31097508      -1.62793081       0.00000000
Si       2.74023864      -2.59654781      -0.05771389       0.00000000
Si       2.64600099      -0.00995319       2.80054989       0.00000000
Si      -0.06455727       2.70741429       2.80041162       0.00000000
