10
Lattice="16.28999089631971 0.0 0.0 0.0 16.28999089631971 0.0 0.0 0.0 34.56954931742767" Properties=species:S:1:pos:R:3:initial_magmoms:R:1 pbc="T T T"
Si       1.35728280       1.35692442      -1.35709756       0.00000000
Si      -1.35786924      -1.35698958      -1.35754696       0.00000000
Si       1.35726651      -1.35808101       1.35716670       0.00000000
Si      -1.35783666       1.35749457       1.35747782       0.00000000
Si       2.71124244      -0.00055386      -2.71495564       0.00000000
Si      -0.00055386      -2.71455583       2.71378028       0.00000000
Si       2.71490769      -0.00144981       2.71384942       0.00000000
Si       2.71440270      -2.71461936      -0.00041483       0.00000000
Si       2.71433754       2.71497285      -0.00020742       0.00000000
Si      -2.71521720      -0.00130320       2.71447167       0.00000000
