10
Lattice="16.28999089631971 0.0 0.0 0.0 16.28999089631971 0.0 0.0 0.0 34.56954931742767" Properties=species:S:1:pos:R:3:initial_magmoms:R:1 pbc="T T T"
Si      -2.25466632       0.09130545       0.50032537       0.00000000
Si       0.48861855       2.06827614       1.04410468       0.00000000
Si       0.32695659       0.11662011      -2.35239001       0.00000000
Si       0.48252609      -2.17137555       0.85922663       0.00000000
Si      -2.96455194      -1.92274128      -0.39706607       0.00000000
Si      -0.74507202       1.84951773       3.12553841       0.00000000
Si       2.80942227       2.13513030       1.18131130       0.00000000
Si       2.62611090       0.40169511      -2.63171212       0.00000000
Si      -2.53513125       0.43991145       2.76414814       0.00000000
Si      -3.21186672       1.95571224      -0.54298421       0.00000000
