10
Lattice="16.28999089631971 0.0 0.0 0.0 16.28999089631971 0.0 0.0 0.0 34.56954931742767" Properties=species:S:1:pos:R:3:initial_magmoms:R:1 pbc="T T T"
Si      -1.94483052      -0.73287081       1.41581539       0.00000000
Si       0.57151836       1.93813533       1.56541174       0.00000000
Si       2.09391660      -1.80048483       0.30085896       0.00000000
Si      -1.08810684      -1.89925110      -1.83681946       0.00000000
Si       0.24335631       1.50219864      -2.63143556       0.00000000
Si      -1.54670292       0.09259236      -2.99282584       0.00000000
Si      -0.62952705      -1.97198595       3.04049524       0.00000000
Si       0.79768872      -3.31097508       1.62793081       0.00000000
Si       2.07091512       0.76118283       3.06406477       0.00000000
Si       3.51321543      -0.47273580       1.68312112       0.00000000
