10
Lattice="16.28999089631971 0.0 0.0 0.0 16.28999089631971 0.0 0.0 0.0 34.56954931742767" Properties=species:S:1:pos:R:3:initial_magmoms:R:1 pbc="T T T"
Si       1.19759193       1.57775166       1.34274842       0.00000000
Si      -1.69989408      -1.25175618       1.15128832       0.00000000
Si      -1.59047415       1.43125569      -1.26145812       0.00000000
Si       1.88682183      -1.81208331      -0.35628853       0.00000000
Si       1.73361438       1.23351138      -2.10958792       0.00000000
Si      -0.20049732      -2.42870868       2.64994135       0.00000000
Si       2.54089791       0.26749809       2.67113249       0.00000000
Si      -0.13012452       2.50621650      -2.72171127       0.00000000
Si       3.02003568       2.43758673      -0.07582562       0.00000000
Si      -2.90665728       0.27352539       2.62769583       0.00000000
