10
Lattice="16.28999089631971 0.0 0.0 0.0 16.28999089631971 0.0 0.0 0.0 34.56954931742767" Properties=species:S:1:pos:R:3:initial_magmoms:R:1 pbc="T T T"
Si       1.14790743       1.94681790       0.68893693       0.00000000
Si       1.04966244      -1.78170246       1.14466756       0.00000000
Si       0.35122869      -0.12421125      -2.33711026       0.00000000
Si      -2.32846002      -0.08651619       0.60320440       0.00000000
Si       0.82784151       1.94642694       2.98909232       0.00000000
Si      -0.94234392       1.60979409      -3.26046344       0.00000000
Si       0.24345405      -3.74551083       0.15725697       0.00000000
Si       3.34881675      -1.49662746       0.86534544       0.00000000
Si      -0.21045051       3.82192722      -0.07411716       0.00000000
Si      -2.48916087       0.05738967       2.95407335       0.00000000
