10
Lattice="16.28999089631971 0.0 0.0 0.0 16.28999089631971 0.0 0.0 0.0 34.56954931742767" Properties=species:S:1:pos:R:3:initial_magmoms:R:1 pbc="T T T"
Si       1.35775521      -1.35751086       1.36318180       0.00000000
Si      -1.36119240       1.35884664       1.36338922       0.00000000
Si       1.35707103       1.37547873      -1.36671827       0.00000000
Si      -1.36923966      -1.36039419      -1.38119946       0.00000000
Si       2.73500955      -0.05616792      -2.66614687       0.00000000
Si       2.71104696      -2.71226871       0.00774358       0.00000000
Si       2.71384884       2.71441899       0.00259272       0.00000000
Si      -2.71692765      -2.71471221       0.00338782       0.00000000
Si       2.71332756       0.00011403       2.72003737       0.00000000
Si      -2.71863810       2.71513575       0.00961034       0.00000000
