10
Lattice="16.28999089631971 0.0 0.0 0.0 16.28999089631971 0.0 0.0 0.0 34.56954931742767" Properties=species:S:1:pos:R:3:initial_magmoms:R:1 pbc="T T T"
Si       1.35738054       1.35663120       1.35706299       0.00000000
Si      -1.35812988      -1.35777639       1.35682100       0.00000000
Si      -1.36129014       1.35628911      -1.35771981       0.00000000
Si       1.35741312      -1.35707755      -1.36293981       0.00000000
Si      -2.69783577       0.00666261      -2.72912917       0.00000000
Si       2.71393029       2.71391400       0.00006914       0.00000000
Si      -0.00021177       2.71430496       2.71426425       0.00000000
Si      -2.71524978       2.71376739       0.00013828       0.00000000
Si       2.71485891      -0.00087966       2.71443710       0.00000000
Si      -2.71526607      -0.00123804       2.71440253       0.00000000
