10
Lattice="16.28999089631971 0.0 0.0 0.0 16.28999089631971 0.0 0.0 0.0 34.56954931742767" Properties=species:S:1:pos:R:3:initial_magmoms:R:1 pbc="T T T"
Si       1.46272797       1.34363178       1.15258399       0.00000000
Si       1.13780763      -0.97698365      -1.77556218       0.00000000
Si      -0.82883520      -1.91968595       1.03179792       0.00000000
Si      -1.76191011       1.43537706      -0.54675230       0.00000000
Si       2.59475265       2.36584557      -0.64648550       0.00000000
Si      -0.78670926      -1.69244045      -3.05097185       0.00000000
Si      -3.48939945      -0.11959304      -0.86555286       0.00000000
Si       3.14440983      -0.19583675       1.75229686       0.00000000
Si      -0.00992061       2.93931873       2.12699642       0.00000000
Si       2.85138531       0.64953280      -2.20913371       0.00000000
