10
Lattice="16.28999089631971 0.0 0.0 0.0 16.28999089631971 0.0 0.0 0.0 34.56954931742767" Properties=species:S:1:pos:R:3:initial_magmoms:R:1 pbc="T T T"
Si      -1.33654563      -1.34962650      -1.37140936       0.00000000
Si      -1.35395964       1.35747828       1.35785809       0.00000000
Si       1.36129014      -1.35628911       1.35771981       0.00000000
Si       1.37350764       1.36236528      -1.37696814       0.00000000
Si      -2.71124244       0.00055386       2.71495564       0.00000000
Si      -2.71130760      -2.71514552      -0.00300755       0.00000000
Si      -2.71055826       2.71736748      -0.00013828       0.00000000
Si       0.00316026      -2.71406550       2.71454081       0.00000000
Si       0.00309510       2.71552671       2.71474823       0.00000000
Si       2.71870326      -2.71336666      -0.00522000       0.00000000
