10
Lattice="16.28999089631971 0.0 0.0 0.0 16.28999089631971 0.0 0.0 0.0 34.56954931742767" Properties=species:S:1:pos:R:3:initial_magmoms:R:1 pbc="T T T"
Si       1.36015588       1.35296595      -1.37835784       0.00000000
Si      -1.35534429      -1.36208835      -1.37728618       0.00000000
Si       1.46205586      -1.23401637       1.44044479       0.00000000
Si      -1.33646418       1.45821564       1.45254413       0.00000000
Si      -0.17150112      -2.34791028       2.78613438       0.00000000
Si       2.22191757       0.46959183       3.00834757       0.00000000
Si       0.50147136       2.41061049       2.91839755       0.00000000
Si       2.71786988       2.70806589      -0.00304212       0.00000000
Si      -2.70811476      -2.72086494      -0.00044940       0.00000000
Si      -2.71088406       2.71932228      -0.00528914       0.00000000
