10
Lattice="16.28999089631971 0.0 0.0 0.0 16.28999089631971 0.0 0.0 0.0 34.56954931742767" Properties=species:S:1:pos:R:3:initial_magmoms:R:1 pbc="T T T"
Si      -0.15501564      -1.54574181       1.74718057       0.00000000
Si       2.16181332       0.93343329       0.38610751       0.00000000
Si      -0.65347335      -1.53440397      -1.74939302       0.00000000
Si      -1.83060504       1.36534635       1.30935698       0.00000000
Si      -2.25670257      -0.77300937       2.43117405       0.00000000
Si      -1.71286092       0.07315839      -2.96606899       0.00000000
Si      -0.32114106      -3.52633865       0.55207601       0.00000000
Si       1.95137910      -1.57483575       2.71246663       0.00000000
Si       1.84575474       2.10716037      -2.67883044       0.00000000
Si       3.88588406      -0.52196418      -0.13772516       0.00000000
