10
Lattice="16.28999089631971 0.0 0.0 0.0 16.28999089631971 0.0 0.0 0.0 34.56954931742767" Properties=species:S:1:pos:R:3:initial_magmoms:R:1 pbc="T T T"
Si       0.25554123      -0.34230177       2.30475314       0.00000000
Si       1.24056562      -1.86940782      -0.77262986       0.00000000
Si      -2.33956980      -0.16482222      -0.43917180       0.00000000
Si       0.49793643       2.22808104      -0.74984851       0.00000000
Si      -0.68116635      -2.56901445      -2.04717529       0.00000000
Si      -2.24310042      -0.81311535      -2.66482977       0.00000000
Si      -0.43106598       3.43013643       1.13526463       0.00000000
Si       1.96838001       1.12112667       2.86146147       0.00000000
Si      -1.79536977       0.21893760       3.25189018       0.00000000
Si      -2.31049215       2.24740098       2.03984654       0.00000000
