10
Lattice="16.28999089631971 0.0 0.0 0.0 16.28999089631971 0.0 0.0 0.0 34.56954931742767" Properties=species:S:1:pos:R:3:initial_magmoms:R:1 pbc="T T T"
Si      -0.37512612       2.36082825       0.17827527       0.00000000
Si      -0.02331099      -0.29310597      -2.38709785       0.00000000
Si       2.23086663       0.73410885       0.61437037       0.00000000
Si      -1.52640558      -1.65918537       1.56645086       0.00000000
Si       1.92062358       2.83678947      -0.57641299       0.00000000
Si       2.42465803      -0.59606739       2.73393434       0.00000000
Si      -1.60264278      -2.04239133      -2.66078513       0.00000000
Si      -1.42648272       3.11021712      -1.87674731       0.00000000
Si       2.02760001      -0.85434534      -3.33423490       0.00000000
Si      -1.06609905       2.70021411       2.75675025       0.00000000
