10
Lattice="16.28999089631971 0.0 0.0 0.0 16.28999089631971 0.0 0.0 0.0 34.56954931742767" Properties=species:S:1:pos:R:3:initial_magmoms:R:1 pbc="T T T"
Si      -1.34330598       1.31025357      -1.32838407       0.00000000
Si       1.35058761       1.36588392       1.33949127       0.00000000
Si      -1.36726857      -1.34584722       1.34550638       0.00000000
Si       1.21075425      -1.31637861      -1.54029207       0.00000000
Si       0.47913777       2.17008864      -2.74695811       0.00000000
Si      -2.54089791      -0.26749809      -2.67113249       0.00000000
Si      -0.65407608      -2.07958140      -3.02742102       0.00000000
Si       2.31839280       0.49904415      -2.95447924       0.00000000
Si      -0.00860112      -2.70562239       2.70077175       0.00000000
Si       2.70794039       0.00951336       2.70056433       0.00000000
