10
Lattice="16.28999089631971 0.0 0.0 0.0 16.28999089631971 0.0 0.0 0.0 34.56954931742767" Properties=species:S:1:pos:R:3:initial_magmoms:R:1 pbc="T T T"
Si       1.43716896       1.12762638       1.44521539       0.00000000
Si       1.43058780      -1.21797072      -1.45738387       0.00000000
Si      -1.74384450      -0.93610485       1.33538787       0.00000000
Si      -1.26050391       1.50584760      -1.44773896       0.00000000
Si       2.78418906      -2.57737122      -0.04995303       0.00000000
Si      -2.74331745      -2.64947076      -0.00172848       0.00000000
Si       0.08182467      -2.56826511      -2.82875866       0.00000000
Si      -3.41171244       1.07600337       1.38036288       0.00000000
Si       2.72707632       2.72083725      -0.00038027       0.00000000
Si      -2.63379978       0.14670774      -2.82405720       0.00000000
