10
Lattice="16.28999089631971 0.0 0.0 0.0 16.28999089631971 0.0 0.0 0.0 34.56954931742767" Properties=species:S:1:pos:R:3:initial_magmoms:R:1 pbc="T T T"
Si       1.30875719       1.32515892       1.42329828       0.00000000
Si       1.54595262      -0.79662987      -1.62100164       0.00000000
Si      -1.42601031       1.82966022      -0.58992969       0.00000000
Si      -0.93141333      -1.95497919       1.07331597       0.00000000
Si       2.51651897       2.59561602      -0.14795775       0.00000000
Si       2.96773568       1.13166630      -2.00468929       0.00000000
Si       2.75630777      -2.53107504      -0.34576483       0.00000000
Si       3.00679910       0.03733668       2.33953013       0.00000000
Si       0.13359429      -1.10934900      -3.64909453       0.00000000
Si      -3.61841625       0.94038912      -0.86168107       0.00000000
