10
Lattice="16.28999089631971 0.0 0.0 0.0 16.28999089631971 0.0 0.0 0.0 34.56954931742767" Properties=species:S:1:pos:R:3:initial_magmoms:R:1 pbc="T T T"
Si      -2.32080372      -0.06685416      -0.13720662       0.00000000
Si       0.74220498       2.16919269      -0.47394879       0.00000000
Si       0.88804935      -1.37485971      -1.72239419       0.00000000
Si       1.05135660      -0.74938887       2.05502258       0.00000000
Si       3.34710630      -0.27342765       1.30033432       0.00000000
Si      -2.70428661       1.70961921      -1.68927654       0.00000000
Si       1.68863769       1.94228928      -2.62946510       0.00000000
Si       1.40317173      -3.40332309      -0.51035054       0.00000000
Si      -2.80942227      -2.13513030      -1.18131130       0.00000000
Si      -1.16364357       3.46357980      -1.08821545       0.00000000
