10
Lattice="16.28999089631971 0.0 0.0 0.0 16.28999089631971 0.0 0.0 0.0 34.56954931742767" Properties=species:S:1:pos:R:3:initial_magmoms:R:1 pbc="T T T"
Si       0.16521318       2.04559787      -1.14314650       0.00000000
Si      -1.39367466       0.12178404       1.89289130       0.00000000
Si       2.14868358      -1.23807258       0.46001725       0.00000000
Si      -1.14101676      -1.03540869      -2.14407379       0.00000000
Si       0.53084223       0.83724084       3.16830097       0.00000000
Si       0.56000133      -2.79140553      -2.25887932       0.00000000
Si       2.25220653       1.86387152      -2.33908072       0.00000000
Si       2.75095746      -1.94502600      -1.64426696       0.00000000
Si       1.41271767      -2.91457422       2.03345117       0.00000000
Si      -2.03613597      -2.04639867       2.68958158       0.00000000
