10
Lattice="16.28999089631971 0.0 0.0 0.0 16.28999089631971 0.0 0.0 0.0 34.56954931742767" Properties=species:S:1:pos:R:3:initial_magmoms:R:1 pbc="T T T"
Si       2.23663885      -0.64176084       0.22045014       0.00000000
Si      -0.47892600       2.24462258       0.48584072       0.00000000
Si      -0.77809185      -0.76505985      -2.10317799       0.00000000
Si      -1.05124257      -1.25130006       2.02954481       0.00000000
Si       2.06110921      -2.64347604      -1.07203689       0.00000000
Si       0.15156216       0.91669599      -3.52979494       0.00000000
Si       0.04430880       2.29539851       3.00395724       0.00000000
Si      -2.85329124       2.49229574       0.26791416       0.00000000
Si       1.13168815       3.58890596      -0.74791262       0.00000000
Si      -3.13057962      -1.06772805      -2.04451343       0.00000000
