10
Lattice="16.28999089631971 0.0 0.0 0.0 16.28999089631971 0.0 0.0 0.0 34.56954931742767" Properties=species:S:1:pos:R:3:initial_magmoms:R:1 pbc="T T T"
Si       1.02268620      -2.04024105      -0.59449287       0.00000000
Si       0.77809185       0.76505985       2.10317799       0.00000000
Si      -2.35248777      -0.30266820       0.05866456       0.00000000
Si       0.92965401       1.68175584      -1.42661696       0.00000000
Si       2.83920106      -1.87841619       1.03114109       0.00000000
Si       1.51016445      -1.61999163      -2.87871169       0.00000000
Si      -3.04359102      -0.04209336      -2.14711591       0.00000000
Si      -3.13072623       1.16950797       1.73795049       0.00000000
Si       3.01473070       0.12329901       2.32362813       0.00000000
Si      -0.75202785       3.22122437      -2.02632984       0.00000000
