10
Lattice="16.28999089631971 0.0 0.0 0.0 16.28999089631971 0.0 0.0 0.0 34.56954931742767" Properties=species:S:1:pos:R:3:initial_magmoms:R:1 pbc="T T T"
Si       0.47969163       2.30878170       0.25671362       0.00000000
Si       1.40750487      -1.58693922       1.07086153       0.00000000
Si      -2.19894542      -0.29714589       0.88850705       0.00000000
Si       0.22920030      -0.25963002      -2.42858134       0.00000000
Si      -3.45852080       0.31646583      -1.00950054       0.00000000
Si      -1.21835028       3.59660394      -0.65951823       0.00000000
Si       3.63902310      -1.24199847       0.36657571       0.00000000
Si       0.88132158      -3.85778151       0.45016492       0.00000000
Si      -2.52710747       2.27144502      -2.08281651       0.00000000
Si       2.49987969       0.06159249      -3.13075841       0.00000000
