10
Lattice="16.28999089631971 0.0 0.0 0.0 16.28999089631971 0.0 0.0 0.0 34.56954931742767" Properties=species:S:1:pos:R:3:initial_magmoms:R:1 pbc="T T T"
Si      -1.35426500       1.35405738       1.36117677       0.00000000
Si       1.35981427      -1.36088289       1.36128047       0.00000000
Si       1.35554629       1.35277047      -1.38269286       0.00000000
Si      -1.36128533      -1.36256076      -1.39543175       0.00000000
Si      -2.71161778       2.71042794       0.00010371       0.00000000
Si       2.71654321       2.71124244      -0.00096795       0.00000000
Si       0.00288985       2.71168227       2.71841260       0.00000000
Si      -2.71267663      -0.00307881       2.71817061       0.00000000
Si      -2.71182955      -2.71940373       0.00203960       0.00000000
Si       2.71724368      -2.71836117      -0.00245444       0.00000000
