10
Lattice="16.28999089631971 0.0 0.0 0.0 16.28999089631971 0.0 0.0 0.0 34.56954931742767" Properties=species:S:1:pos:R:3:initial_magmoms:R:1 pbc="T T T"
Si       1.35110889      -1.35523026      -1.35927544       0.00000000
Si       1.35589815       1.34594496       1.37064883       0.00000000
Si      -1.36187495       1.35819504      -1.35851491       0.00000000
Si      -1.36265198      -1.35589815       1.37576512       0.00000000
Si      -0.04616586       2.66737347       2.68090462       0.00000000
Si       2.71015101      -2.70774009       0.00266186       0.00000000
Si       2.71088406       0.00263898      -2.71523220       0.00000000
Si       2.71212210       2.71516833       0.00172848       0.00000000
Si      -0.00381186      -2.71205694      -2.71530134       0.00000000
Si      -2.72036599      -2.71099809       0.00044940       0.00000000
