10
Lattice="16.28999089631971 0.0 0.0 0.0 16.28999089631971 0.0 0.0 0.0 34.56954931742767" Properties=species:S:1:pos:R:3:initial_magmoms:R:1 pbc="T T T"
Si      -1.26538765      -1.44630765       1.37747774       0.00000000
Si       1.00393641      -1.32118416      -1.76235661       0.00000000
Si       1.46634435       1.31411430       1.46559903       0.00000000
Si       2.49000795      -2.83020831      -0.16140532       0.00000000
Si      -2.54907712      -2.78655111      -0.12341336       0.00000000
Si      -2.74286852      -1.45637487      -2.24297732       0.00000000
Si       0.03199356       2.59753824       2.88351828       0.00000000
Si       2.27957373       3.15229419       0.24210110       0.00000000
Si      -2.68483806      -0.11779299       2.87077940       0.00000000
Si       2.29842126       0.14647968      -3.19329476       0.00000000
