10
Lattice="16.28999089631971 0.0 0.0 0.0 16.28999089631971 0.0 0.0 0.0 34.56954931742767" Properties=species:S:1:pos:R:3:initial_magmoms:R:1 pbc="T T T"
Si       1.35715248       1.35767812       1.35678643       0.00000000
Si       1.35713619      -1.35789324      -1.35723583       0.00000000
Si      -1.35728932      -1.35729051       1.35789266       0.00000000
Si      -1.35797513       1.35736209      -1.35744325       0.00000000
Si      -0.00014661      -2.71336785      -2.71481736       0.00000000
Si      -2.71375760       0.00047137      -2.71505935       0.00000000
Si       2.71451673       2.71477684      -0.00013828       0.00000000
Si       2.71521720      -0.00155269      -2.71416054       0.00000000
Si       2.71464705      -2.71514346       0.00034570       0.00000000
Si       2.71228500       0.00201859       2.71751379       0.00000000
