10
Lattice="16.28999089631971 0.0 0.0 0.0 16.28999089631971 0.0 0.0 0.0 34.56954931742767" Properties=species:S:1:pos:R:3:initial_magmoms:R:1 pbc="T T T"
Si      -0.94052174      -1.96845102       0.80097691       0.00000000
Si      -1.43927267       1.84044650       0.10616315       0.00000000
Si       1.04244434      -0.53970399      -2.02397910       0.00000000
Si       2.48217735      -2.14687539      -0.87886214       0.00000000
Si       0.12104773       2.95289549       1.77608073       0.00000000
Si       1.09009422      -3.23480304       0.77262986       0.00000000
Si      -1.54279562      -1.26149760       2.90526112       0.00000000
Si      -0.57062471      -1.68718788      -3.39708237       0.00000000
Si       0.67380979      -0.40899303       3.76784099       0.00000000
Si       2.89302744      -0.02388114       2.66579772       0.00000000
