10
Lattice="16.28999089631971 0.0 0.0 0.0 16.28999089631971 0.0 0.0 0.0 34.56954931742767" Properties=species:S:1:pos:R:3:initial_magmoms:R:1 pbc="T T T"
Si       1.77245626       0.27982962      -1.49181516       0.00000000
Si       0.86467972      -1.55975121       1.55355641       0.00000000
Si       0.17552964       2.00171520       1.29248703       0.00000000
Si      -1.81651486      -0.16182486      -1.62563397       0.00000000
Si       1.42429009      -3.15750699      -0.12690489       0.00000000
Si      -2.06110921       2.64347604       1.07203689       0.00000000
Si      -2.83920106       1.87841619      -1.03114109       0.00000000
Si       2.15222503      -2.00024910      -2.08789824       0.00000000
Si       3.44679133       1.42508178      -0.29764399       0.00000000
Si       2.03596330       3.19960346       0.38821626       0.00000000
