10
Lattice="16.28999089631971 0.0 0.0 0.0 16.28999089631971 0.0 0.0 0.0 34.28971787722196" Properties=species:S:1:pos:R:3:initial_magmoms:R:1 pbc="T T T"
Si      -1.56638191      -1.24355547      -1.24771506       0.00000000
Si       1.35942331      -1.35805073       1.37864631       0.00000000
Si       1.74867286       1.03187865      -1.24042644       0.00000000
Si      -1.36559137       1.38898803       1.36970012       0.00000000
Si       0.39445258      -1.89793391      -2.29640567       0.00000000
Si       2.68345822       2.72872650       0.03916231       0.00000000
Si      -0.00735493      -2.69920643       2.75342474       0.00000000
Si       2.70610132       0.01706215       2.75195028       0.00000000
Si       2.83902772      -2.61757724      -0.11911226       0.00000000
Si      -2.72109856       0.01406804       2.74714971       0.00000000
