10
Lattice="16.28999089631971 0.0 0.0 0.0 16.28999089631971 0.0 0.0 0.0 34.28971787722196" Properties=species:S:1:pos:R:3:initial_magmoms:R:1 pbc="T T T"
Si      -0.93672387       2.19394439       0.18070691       0.00000000
Si      -1.88403624      -1.15136091       0.96474175       0.00000000
Si       1.62443880      -1.23129594      -1.43104789       0.00000000
Si       2.14386174       0.27666677       1.24228288       0.00000000
Si      -0.34551090      -0.00382815      -2.51501505       0.00000000
Si      -0.81547740       1.69874468       2.46515778       0.00000000
Si      -1.18895823      -0.62188704       3.11481113       0.00000000
Si      -2.71824388       0.10646478      -2.25256141       0.00000000
Si      -3.16724189       1.70524439      -0.51907804       0.00000000
Si       1.61640783      -3.34052514      -0.31045928       0.00000000
