10
Lattice="16.28999089631971 0.0 0.0 0.0 16.28999089631971 0.0 0.0 0.0 34.28971787722196" Properties=species:S:1:pos:R:3:initial_magmoms:R:1 pbc="T T T"
Si       0.74751552       1.98146021      -1.15648996       0.00000000
Si       1.62334737      -1.80769871      -0.29910938       0.00000000
Si       1.41863094      -0.50070573       2.05395525       0.00000000
Si      -2.03724369      -0.95827295      -1.20140952       0.00000000
Si      -0.64267308      -1.72030286       2.34164614       0.00000000
Si       2.04449274       0.56255560      -2.66088359       0.00000000
Si      -0.68641173      -2.18952002      -2.67240495       0.00000000
Si       3.45022200      -0.81406149      -1.34892397       0.00000000
Si       0.47358288      -3.63910196      -1.18368172       0.00000000
Si       1.54223946       3.80178626       0.28542777       0.00000000
