10
Lattice="16.28999089631971 0.0 0.0 0.0 16.28999089631971 0.0 0.0 0.0 34.28971787722196" Properties=species:S:1:pos:R:3:initial_magmoms:R:1 pbc="T T T"
Si      -2.09240163       0.82317605       0.57750775       0.00000000
Si      -0.39182337      -1.10309364      -2.00663541       0.00000000
Si       0.91158840      -1.44353576       1.60160504       0.00000000
Si       1.99998846       1.21354961      -0.42944467       0.00000000
Si       2.61418662      -2.11214252       0.07578032       0.00000000
Si       1.66171032      -2.22268646      -2.13679925       0.00000000
Si      -1.77378552       3.13058939       0.27592951       0.00000000
Si      -3.56909013      -0.88632587      -0.12224291       0.00000000
Si       1.15852851      -0.05543487       3.55214244       0.00000000
Si      -2.45312739      -2.32269077      -1.71894452       0.00000000
