10
Lattice="16.28999089631971 0.0 0.0 0.0 16.28999089631971 0.0 0.0 0.0 34.28971787722196" Properties=species:S:1:pos:R:3:initial_magmoms:R:1 pbc="T T T"
Si       1.35490446      -1.35096228       1.35629626       0.00000000
Si      -1.35773892      -1.35457866      -1.35667345       0.00000000
Si       1.35689184       1.35985662      -1.35674203       0.00000000
Si      -1.35922131       1.36199061       1.36233125       0.00000000
Si       0.01146816      -2.68696708       2.73481227       0.00000000
Si       2.71306692      -2.71274601       0.00017145       0.00000000
Si      -0.00024435      -2.71255216      -2.71389553       0.00000000
Si      -2.71523349       0.00237834      -2.71375837       0.00000000
Si       2.71290402       2.71639008      -0.00133730       0.00000000
Si       2.71516833       0.00211770      -2.71420414       0.00000000
