10
Lattice="16.28999089631971 0.0 0.0 0.0 16.28999089631971 0.0 0.0 0.0 34.28971787722196" Properties=species:S:1:pos:R:3:initial_magmoms:R:1 pbc="T T T"
Si      -0.04380381      -1.70614359       1.61583528       0.00000000
Si       1.47668850       1.70950192       0.69975066       0.00000000
Si      -2.25890009       0.76001484      -0.10304066       0.00000000
Si       1.11596274      -1.43636490      -1.59670161       0.00000000
Si       1.06736967       1.58460649       2.98392721       0.00000000
Si      -1.92052421       2.83820344      -1.17552077       0.00000000
Si      -2.57888456       1.17698182       2.26819753       0.00000000
Si       3.56909013       0.88632587       0.12224291       0.00000000
Si      -1.80591103      -3.11842143       0.82789141       0.00000000
Si       3.17726676      -0.21676777      -1.88439250       0.00000000
