10
Lattice="16.28999089631971 0.0 0.0 0.0 16.28999089631971 0.0 0.0 0.0 34.28971787722196" Properties=species:S:1:pos:R:3:initial_magmoms:R:1 pbc="T T T"
Si      -1.22872212      -1.07996184       1.74809079       0.00000000
Si       1.97882775       1.30287420       0.59201231       0.00000000
Si      -1.85103270       1.61147196       0.01213857       0.00000000
Si       0.27684855      -1.01115288      -2.30300161       0.00000000
Si      -1.57664394       0.66386637      -2.58606339       0.00000000
Si       0.44056305      -0.88985754       3.40579384       0.00000000
Si      -2.87549451       0.58753143       2.03176979       0.00000000
Si       2.62534527      -1.17708282       2.48796045       0.00000000
Si      -0.76305618       3.84986457      -0.00678937       0.00000000
Si       2.45472381       2.85583248      -1.13896791       0.00000000
