10
Lattice="16.28999089631971 0.0 0.0 0.0 16.28999089631971 0.0 0.0 0.0 34.28971787722196" Properties=species:S:1:pos:R:3:initial_magmoms:R:1 pbc="T T T"
Si       2.00595060       0.61683714      -1.00938699       0.00000000
Si      -0.94051944      -0.76351230      -2.05261795       0.00000000
Si       0.70595973      -2.04309180       1.14894622       0.00000000
Si       0.48361752       2.41002405       0.69278985       0.00000000
Si      -2.96518725      -1.73631852       0.91817629       0.00000000
Si       1.25165844       1.63683549      -2.95666687       0.00000000
Si       0.25003521      -2.85294915      -2.24584062       0.00000000
Si       2.82664080       2.27336724       0.46880928       0.00000000
Si      -3.07592667      -1.55488050      -1.50446221       0.00000000
Si       0.03890052       3.32043957      -1.84866259       0.00000000
