10
Lattice="16.28999089631971 0.0 0.0 0.0 16.28999089631971 0.0 0.0 0.0 34.28971787722196" Properties=species:S:1:pos:R:3:initial_magmoms:R:1 pbc="T T T"
Si      -1.35830907      -1.35654975      -1.35855938       0.00000000
Si       1.35641943       1.35876519      -1.35838793       0.00000000
Si       1.35834165      -1.35948195       1.35629626       0.00000000
Si      -1.35742941       1.36115982       1.36065106       0.00000000
Si       2.71218726      -2.71502172      -0.00315466       0.00000000
Si       2.71394658       0.00177561      -2.71554144       0.00000000
Si      -0.00109143      -2.71383255      -2.71567859       0.00000000
Si       2.71448415       2.71520091      -0.00270889       0.00000000
Si      -2.71590138      -2.71391400      -0.00147446       0.00000000
Si      -0.00061902       2.71586880      -2.71581575       0.00000000
