10
Lattice="16.28999089631971 0.0 0.0 0.0 16.28999089631971 0.0 0.0 0.0 34.28971787722196" Properties=species:S:1:pos:R:3:initial_magmoms:R:1 pbc="T T T"
Si      -1.36054080       1.35405738      -1.36178262       0.00000000
Si       1.35742941      -1.36115982      -1.36065106       0.00000000
Si       1.33832124       1.36098063       1.38023050       0.00000000
Si      -1.36695906      -1.36210464       1.37601286       0.00000000
Si       2.48202585      -0.06177168       2.89031622       0.00000000
Si      -2.71251306       2.71318095      -0.00466340       0.00000000
Si       2.71596654       2.71474479      -0.00181736       0.00000000
Si      -0.00151497       2.71264338      -2.71883325       0.00000000
Si       2.71384884      -0.00239463      -2.71903899       0.00000000
Si      -2.71404432      -2.71891503       0.00157733       0.00000000
