10
Lattice="16.28999089631971 0.0 0.0 0.0 16.28999089631971 0.0 0.0 0.0 34.28971787722196" Properties=species:S:1:pos:R:3:initial_magmoms:R:1 pbc="T T T"
Si       1.40853114       1.53977967      -1.11582233       0.00000000
Si       1.06587099      -1.23126336       1.76211530       0.00000000
Si      -1.42053687       1.50780240       1.23316181       0.00000000
Si      -1.27731519      -1.14458427      -1.70937768       0.00000000
Si       1.30030038       0.58220460       3.26047394       0.00000000
Si      -0.24741252       3.03178077      -1.90143450       0.00000000
Si      -3.48581565       0.46037169       1.29659783       0.00000000
Si      -3.10607946       0.27303669      -2.21518559       0.00000000
Si       2.22071796       3.10884876       0.46572321       0.00000000
Si      -1.73688867      -3.34938690      -0.86540438       0.00000000
