10
Lattice="16.28999089631971 0.0 0.0 0.0 16.28999089631971 0.0 0.0 0.0 34.28971787722196" Properties=species:S:1:pos:R:3:initial_magmoms:R:1 pbc="T T T"
Si       1.14976449       1.83140325       0.88457235       0.00000000
Si      -1.15999461       1.44958194      -1.48872322       0.00000000
Si       1.54105029      -1.24781400      -1.46931523       0.00000000
Si      -1.82285100      -1.04234823       1.41846355       0.00000000
Si      -2.51082657       2.68082901      -0.01772779       0.00000000
Si       2.68475490      -2.67056631       0.04077050       0.00000000
Si      -2.50978401       0.10438632      -2.85420913       0.00000000
Si      -2.66084118      -2.76623748      -0.01621905       0.00000000
Si      -0.47358288       3.63910196       1.18368172       0.00000000
Si       0.20272905      -2.60879463      -2.84954573       0.00000000
