10
Lattice="16.28999089631971 0.0 0.0 0.0 16.28999089631971 0.0 0.0 0.0 34.28971787722196" Properties=species:S:1:pos:R:3:initial_magmoms:R:1 pbc="T T T"
Si      -1.35563751      -1.35686536      -1.35629626       0.00000000
Si       1.35902583       1.35780897      -1.35650200       0.00000000
Si      -1.35816246       1.36178373       1.35612481       0.00000000
Si       1.36376622      -1.35719489       1.36185120       0.00000000
Si      -2.71306692       2.71274601      -0.00017145       0.00000000
Si      -2.71331127       0.00019385      -2.71406698       0.00000000
Si       0.00172674      -2.71435613      -2.71351834       0.00000000
Si      -2.71368594      -2.71513805       0.00027432       0.00000000
Si       0.00210141       2.71486371      -2.71437558       0.00000000
Si       2.71616202       0.00016779      -2.71430700       0.00000000
