10
Lattice="16.28999089631971 0.0 0.0 0.0 16.28999089631971 0.0 0.0 0.0 34.28971787722196" Properties=species:S:1:pos:R:3:initial_magmoms:R:1 pbc="T T T"
Si       1.32937803      -1.37870415      -1.29574058       0.00000000
Si       0.05644485       2.15497152      -0.90720357       0.00000000
Si       0.38138148      -0.21743892       2.29758383       0.00000000
Si      -2.04529095      -1.10212601      -0.41147684       0.00000000
Si       1.09863018      -3.22241354       0.20296095       0.00000000
Si      -3.66393051       0.59000751      -0.29897222       0.00000000
Si      -1.12353759       1.98677727      -2.94782011       0.00000000
Si       0.21833487       1.92883374       3.18315058       0.00000000
Si      -2.44048635      -2.52995822       1.48124806       0.00000000
Si       0.59293971      -1.17567862      -3.63087168       0.00000000
