10
Lattice="16.28999089631971 0.0 0.0 0.0 16.28999089631971 0.0 0.0 0.0 34.28971787722196" Properties=species:S:1:pos:R:3:initial_magmoms:R:1 pbc="T T T"
Si      -1.32937803       1.37870415       1.29574058       0.00000000
Si      -0.23074785      -1.84370939       1.49870154       0.00000000
Si       2.29434876      -0.26205723       0.66594098       0.00000000
Si      -0.73643832       0.20302553      -2.33513109       0.00000000
Si       1.64239038      -1.09176911       2.82760030       0.00000000
Si       0.89368569      -3.34551707       0.11555641       0.00000000
Si      -3.37466898       0.27657814       0.88426374       0.00000000
Si       2.75004522      -2.15132975      -0.66971285       0.00000000
Si      -1.91901087      -1.78012952      -2.59209838       0.00000000
Si      -1.27293318       3.53367567       0.38853701       0.00000000
