10
Lattice="16.28999089631971 0.0 0.0 0.0 16.28999089631971 0.0 0.0 0.0 34.28971787722196" Properties=species:S:1:pos:R:3:initial_magmoms:R:1 pbc="T T T"
Si      -0.43735392      -1.84905576      -1.33417938       0.00000000
Si      -0.60676992       2.32361863      -0.15276078       0.00000000
Si       2.29794885       0.69530281      -0.41007097       0.00000000
Si      -0.30048534      -1.65390156       1.79986830       0.00000000
Si       1.91721897       1.62507085       1.98283833       0.00000000
Si      -2.76214869      -1.47436913      -1.06315330       0.00000000
Si       0.90552852      -0.11390620       3.27747963       0.00000000
Si       0.37540305      -3.43988829       0.13736469       0.00000000
Si       3.50138889      -1.25786656       0.05602943       0.00000000
Si      -2.90929626       2.56669801       0.03998183       0.00000000
