10
Lattice="16.28999089631971 0.0 0.0 0.0 16.28999089631971 0.0 0.0 0.0 34.28971787722196" Properties=species:S:1:pos:R:3:initial_magmoms:R:1 pbc="T T T"
Si       1.45774323       1.25296164       1.32132073       0.00000000
Si      -1.40838453      -1.36487394       1.34988408       0.00000000
Si       1.05029775       0.02702511      -2.14279996       0.00000000
Si      -2.05490205       1.11508308      -0.54606406       0.00000000
Si       2.51340039      -2.06008227      -0.07818060       0.00000000
Si       2.62138680       2.18111697      -0.50080161       0.00000000
Si      -1.48867794      -3.18479274      -0.09535976       0.00000000
Si      -2.24578827       2.30205393       1.42614445       0.00000000
Si       1.96219566      -0.38944503       2.89542540       0.00000000
Si      -0.06770124       2.71296918       2.34665244       0.00000000
