10
Lattice="16.28999089631971 0.0 0.0 0.0 16.28999089631971 0.0 0.0 0.0 34.28971787722196" Properties=species:S:1:pos:R:3:initial_magmoms:R:1 pbc="T T T"
Si      -0.05644485      -2.15497152       0.90720357       0.00000000
Si      -1.17998244      -0.16819425      -2.04061654       0.00000000
Si       2.19059775       0.80723466      -0.49507522       0.00000000
Si      -1.22846148       1.70549784       1.26594280       0.00000000
Si       2.35900377       2.13322437       1.41616614       0.00000000
Si      -3.36476466       0.11903103      -1.12278315       0.00000000
Si       0.22840209       1.19667969      -3.39050062       0.00000000
Si       1.68614532       2.44964133      -2.06917989       0.00000000
Si       0.39267045       3.42606393       1.26827450       0.00000000
Si      -3.00718287       2.24564166      -0.21317930       0.00000000
