10
Lattice="16.28999089631971 0.0 0.0 0.0 16.28999089631971 0.0 0.0 0.0 34.28971787722196" Properties=species:S:1:pos:R:3:initial_magmoms:R:1 pbc="T T T"
Si       0.45066285       1.68982686       1.58312287       0.00000000
Si       0.18559197       1.21479417      -2.03478729       0.00000000
Si       1.64286279      -1.70339643       0.27832980       0.00000000
Si      -2.01152178      -1.14456798       0.63940073       0.00000000
Si       1.96058295       3.00806253       0.29718915       0.00000000
Si       2.32637490      -1.18123677       2.56494091       0.00000000
Si       0.36261540      -3.70776690       0.39800098       0.00000000
Si      -1.78074135       2.50763373      -2.18267892       0.00000000
Si      -1.84847517      -3.29084064      -0.24616602       0.00000000
Si       1.06660404       0.52795890       3.65195986       0.00000000
