10
Lattice="16.28999089631971 0.0 0.0 0.0 16.28999089631971 0.0 0.0 0.0 34.28971787722196" Properties=species:S:1:pos:R:3:initial_magmoms:R:1 pbc="T T T"
Si      -1.46531808       1.40219433      -1.10556970       0.00000000
Si       1.42749270       1.24383924       1.48670013       0.00000000
Si       1.83585042       0.27214074      -1.63298015       0.00000000
Si      -0.47472318      -2.04701769       1.44219205       0.00000000
Si       0.31035708      -0.12597057       2.97242784       0.00000000
Si       3.26997315       0.45822141       0.24578884       0.00000000
Si      -2.28600828      -0.25433577      -2.58376598       0.00000000
Si      -1.28347281      -3.15734409      -0.61817538       0.00000000
Si      -0.88655067      -2.08707480      -2.78864715       0.00000000
Si       2.00948553       2.59139691      -1.70526291       0.00000000
