10
Lattice="16.28999089631971 0.0 0.0 0.0 16.28999089631971 0.0 0.0 0.0 34.28971787722196" Properties=species:S:1:pos:R:3:initial_magmoms:R:1 pbc="T T T"
Si       1.35384561      -1.35553977      -1.35945091       0.00000000
Si      -1.35834165       1.35948195      -1.35629626       0.00000000
Si      -1.35301482      -1.34742735       1.37916751       0.00000000
Si       1.34280099       1.37306781       1.38273365       0.00000000
Si       2.71389771      -2.70985779       0.00216025       0.00000000
Si      -0.00216657      -2.71207323      -2.71485564       0.00000000
Si      -2.71827972      -2.70993924       0.00421764       0.00000000
Si       2.71331127       0.00281817      -2.71492422       0.00000000
Si       2.70819621       2.72157030       0.00140588       0.00000000
Si      -2.71665072       0.00293220      -2.71485564       0.00000000
