10
Lattice="16.28999089631971 0.0 0.0 0.0 16.28999089631971 0.0 0.0 0.0 34.28971787722196" Properties=species:S:1:pos:R:3:initial_magmoms:R:1 pbc="T T T"
Si      -1.35661491      -1.26845343       1.38924870       0.00000000
Si       1.18065033      -1.50094431      -1.36209122       0.00000000
Si       1.69503966       0.89914284       1.38729418       0.00000000
Si      -1.54390104       1.23196383      -1.33904852       0.00000000
Si       2.50525539       2.57404806      -0.04337652       0.00000000
Si       3.31633449      -0.89964783       1.38636836       0.00000000
Si      -1.14780969       3.28013811       1.31713738       0.00000000
Si       2.38786965      -2.85474105       0.15300081       0.00000000
Si       2.54376495      -0.14167413      -2.71917615       0.00000000
Si      -0.17850582       2.58046632      -2.72037629       0.00000000
