10
Lattice="16.28999089631971 0.0 0.0 0.0 16.28999089631971 0.0 0.0 0.0 34.28971787722196" Properties=species:S:1:pos:R:3:initial_magmoms:R:1 pbc="T T T"
Si       1.21902957       1.78017120      -0.81534137       0.00000000
Si      -1.26061794      -0.51261372      -1.91161855       0.00000000
Si       1.71942579      -1.65742605       0.07269424       0.00000000
Si      -1.36252818       0.81277326       1.80737775       0.00000000
Si       2.54914065       1.88843454       1.19053967       0.00000000
Si       0.54322263      -3.61271475       0.41967209       0.00000000
Si      -2.91501405      -2.11439313      -0.99179635       0.00000000
Si      -0.26355591       3.45382209      -1.51711513       0.00000000
Si       2.52027477      -1.79414802      -2.18802812       0.00000000
Si       0.28856106      -1.57560138      -3.50118789       0.00000000
