10
Lattice="16.28999089631971 0.0 0.0 0.0 16.28999089631971 0.0 0.0 0.0 34.28971787722196" Properties=species:S:1:pos:R:3:initial_magmoms:R:1 pbc="T T T"
Si      -2.33854353       0.44028612       0.24764048       0.00000000
Si       0.64532835      -0.94706802       2.10480693       0.00000000
Si       0.14183703      -1.69774380      -1.70588013       0.00000000
Si       1.19262348       2.17236924       0.13078106       0.00000000
Si      -2.10411414       2.25375408       1.74599912       0.00000000
Si       1.09380834       0.88477506       3.56733279       0.00000000
Si      -0.49085028       3.73141998       0.89945409       0.00000000
Si      -1.09273320      -2.00554335       3.21538293       0.00000000
Si       2.38448133       2.27584332       2.19831504       0.00000000
Si       2.10817035      -2.99058336      -1.55798849       0.00000000
