10
Lattice="16.28999089631971 0.0 0.0 0.0 16.28999089631971 0.0 0.0 0.0 34.28971787722196" Properties=species:S:1:pos:R:3:initial_magmoms:R:1 pbc="T T T"
Si      -1.73806155      -1.05847533       1.11057600       0.00000000
Si       1.72791288      -1.56848265      -0.04488527       0.00000000
Si       0.44847999       1.83184308       1.46252586       0.00000000
Si      -0.64532835       0.94706802      -2.10480693       0.00000000
Si      -1.77419277       2.53185696       1.64748471       0.00000000
Si       3.23783298      -0.25024698      -1.33081898       0.00000000
Si       1.73915298       3.22291134       0.09350811       0.00000000
Si       0.54729513       3.11943726      -1.97402587       0.00000000
Si      -2.95081947       0.62512875       2.21858028       0.00000000
Si      -2.98387188       1.38735414      -1.85716645       0.00000000
