10
Lattice="16.28999089631971 0.0 0.0 0.0 16.28999089631971 0.0 0.0 0.0 34.28971787722196" Properties=species:S:1:pos:R:3:initial_magmoms:R:1 pbc="T T T"
Si      -1.18610748      -1.88859744       0.78266325       0.00000000
Si      -0.57454830       0.36518922      -2.29086304       0.00000000
Si       2.28869613      -0.69939486       0.18297004       0.00000000
Si      -1.11848769       1.90120590       1.14493432       0.00000000
Si      -2.79722106       1.06520310      -2.10590420       0.00000000
Si       2.11506102      -3.01865103       0.25525280       0.00000000
Si       0.27921060      -3.29079177       1.88823295       0.00000000
Si       3.44580741      -0.23964219      -1.79235884       0.00000000
Si      -3.19546269       2.42157366      -0.27469508       0.00000000
Si      -1.49074677       1.23997851       3.55374827       0.00000000
