10
Lattice="16.28999089631971 0.0 0.0 0.0 16.28999089631971 0.0 0.0 0.0 34.28971787722196" Properties=species:S:1:pos:R:3:initial_magmoms:R:1 pbc="T T T"
Si       0.07079634       1.62277722       1.74939380       0.00000000
Si       2.39417388       0.01386279      -1.20624437       0.00000000
Si      -2.29351797      -0.86468949      -1.17819536       0.00000000
Si      -0.46405323       2.56668498      -0.85017974       0.00000000
Si       1.46627919      -0.38758797       2.39530958       0.00000000
Si      -1.40533830       0.98668530      -2.34198904       0.00000000
Si      -0.21602169      -2.07511794       2.28592532       0.00000000
Si      -2.44773540      -1.85657130       0.97276555       0.00000000
Si       1.35954711      -1.57077954      -2.53870926       0.00000000
Si       3.23724654      -0.56303127       0.88951007       0.00000000
