10
Lattice="16.28999089631971 0.0 0.0 0.0 16.28999089631971 0.0 0.0 0.0 34.28971787722196" Properties=species:S:1:pos:R:3:initial_magmoms:R:1 pbc="T T T"
Si      -1.35681583      -1.35646830      -1.35677632       0.00000000
Si       1.35883687       1.35817875      -1.35667345       0.00000000
Si      -1.35592900       1.35835794       1.36065106       0.00000000
Si       1.36064506      -1.35426915       1.36023958       0.00000000
Si      -2.71397983       0.00123804      -2.71482135       0.00000000
Si       0.00121849      -2.71418767      -2.71482135       0.00000000
Si       2.71400197      -2.71553160      -0.00027432       0.00000000
Si      -2.71497352      -2.71472850      -0.00034290       0.00000000
Si      -2.71399612       2.71595025      -0.00034290       0.00000000
Si       2.71574500       0.00074934      -2.71423843       0.00000000
