10
Lattice="16.28999089631971 0.0 0.0 0.0 16.28999089631971 0.0 0.0 0.0 34.28971787722196" Properties=species:S:1:pos:R:3:initial_magmoms:R:1 pbc="T T T"
Si       0.39824163      -1.35637056      -1.83120912       0.00000000
Si      -1.91901087       0.00992061       1.38215072       0.00000000
Si      -0.39107403       2.13161166      -1.12700079       0.00000000
Si       2.07697500      -0.52036776       1.41962940       0.00000000
Si      -0.77838507      -3.26309877      -1.26011355       0.00000000
Si       0.03582171       3.62229361       0.63436014       0.00000000
Si      -0.14279814       0.47640105       3.69571357       0.00000000
Si       2.62091439      -2.05638444      -2.01616796       0.00000000
Si      -3.91447071       0.35166852       0.05668094       0.00000000
Si      -0.57700809      -0.68740542      -3.83750163       0.00000000
