10
Lattice="16.28999089631971 0.0 0.0 0.0 16.28999089631971 0.0 0.0 0.0 34.28971787722196" Properties=species:S:1:pos:R:3:initial_magmoms:R:1 pbc="T T T"
Si       1.35687555       1.35706807       1.35653629       0.00000000
Si       1.35782037      -1.35745585      -1.35797646       0.00000000
Si      -1.35793440       1.35758935      -1.35773643       0.00000000
Si      -1.35884664      -1.35849841       1.35684489       0.00000000
Si      -2.71033020       0.00022667       2.71842177       0.00000000
Si      -2.71463076      -0.00112407      -2.71430700       0.00000000
Si      -0.00001629      -2.71350061      -2.71550715       0.00000000
Si      -2.71513575      -2.71433140      -0.00024003       0.00000000
Si      -0.00047241       2.71420426      -2.71543857       0.00000000
Si       2.71496566      -2.71490155      -0.00051435       0.00000000
