10
Lattice="16.28999089631971 0.0 0.0 0.0 16.28999089631971 0.0 0.0 0.0 34.28971787722196" Properties=species:S:1:pos:R:3:initial_magmoms:R:1 pbc="T T T"
Si      -1.35687555      -1.35706807      -1.35653629       0.00000000
Si       1.35480055      -1.35369304       1.36277702       0.00000000
Si       1.35815769       1.35826020      -1.35643342       0.00000000
Si      -1.35498591       1.36028016       1.36339423       0.00000000
Si       0.00094482      -2.71452392      -2.71451274       0.00000000
Si      -2.71480995       0.00052128      -2.71427271       0.00000000
Si       2.71497352       2.71472850       0.00034290       0.00000000
Si       0.00099369       2.71596654      -2.71447845       0.00000000
Si      -2.71484253       2.71568961      -0.00041148       0.00000000
Si       2.71619201       0.00054083      -2.71447845       0.00000000
