10
Lattice="16.28999089631971 0.0 0.0 0.0 16.28999089631971 0.0 0.0 0.0 34.28971787722196" Properties=species:S:1:pos:R:3:initial_magmoms:R:1 pbc="T T T"
Si       1.35498591      -1.36028016      -1.36339423       0.00000000
Si      -1.35985662       1.35540945      -1.36380571       0.00000000
Si       1.35363384       1.35088083       1.39963849       0.00000000
Si      -1.36728486      -1.36761066       1.39439216       0.00000000
Si       2.70978646      -2.71397320      -0.00061722       0.00000000
Si       2.71403043       2.71280628      -0.00240028       0.00000000
Si      -2.71221984      -2.71712156      -0.00150875       0.00000000
Si      -2.71609686       2.71489140      -0.00325753       0.00000000
Si       2.71314360      -0.00201996      -2.71982765       0.00000000
Si      -0.00166158       2.71309950      -2.72006768       0.00000000
