10
Lattice="16.28999089631971 0.0 0.0 0.0 16.28999089631971 0.0 0.0 0.0 34.28971787722196" Properties=species:S:1:pos:R:3:initial_magmoms:R:1 pbc="T T T"
Si      -0.27699516      -2.24153495      -0.51496327       0.00000000
Si       1.23398379       0.53310654       1.90068012       0.00000000
Si       0.86118714      -0.93074544      -2.12455782       0.00000000
Si      -2.51340039       2.06008227       0.07818060       0.00000000
Si      -1.46310264       2.08710738      -2.06461936       0.00000000
Si      -2.20530762      -2.46724756       0.74501312       0.00000000
Si      -0.55120473       1.67063724       2.97360600       0.00000000
Si      -0.61564797       0.30560040      -3.44896462       0.00000000
Si      -1.05565716       3.31304391       1.39950133       0.00000000
Si       2.91806028       2.17864089       1.60547978       0.00000000
