10
Lattice="16.28999089631971 0.0 0.0 0.0 16.28999089631971 0.0 0.0 0.0 34.28971787722196" Properties=species:S:1:pos:R:3:initial_magmoms:R:1 pbc="T T T"
Si       1.32007644       1.87126488      -0.39882393       0.00000000
Si       0.45569646      -1.88927252      -1.33565384       0.00000000
Si      -2.29434876       0.26205723      -0.66594098       0.00000000
Si      -0.65195838      -0.82971188       2.16165931       0.00000000
Si      -2.52509661      -1.58165216       0.83276055       0.00000000
Si      -1.40066307      -3.08345984      -0.55038457       0.00000000
Si       3.31446996       0.88472619      -1.18786507       0.00000000
Si       1.92645540       2.70922248       1.72182486       0.00000000
Si       0.07343532      -1.24112600      -3.58314036       0.00000000
Si      -1.03125474       1.00639620       3.57155043       0.00000000
