10
Lattice="16.28999089631971 0.0 0.0 0.0 16.28999089631971 0.0 0.0 0.0 34.28971787722196" Properties=species:S:1:pos:R:3:initial_magmoms:R:1 pbc="T T T"
Si      -0.41125734      -1.71248625      -1.55610256       0.00000000
Si      -2.18209274       0.37085814       0.79768215       0.00000000
Si       0.49620969       2.01934098      -1.25692460       0.00000000
Si       1.33073010      -0.81834444       1.91833934       0.00000000
Si      -1.57464679       0.82833021       3.01509658       0.00000000
Si       0.78196887       1.05120999       3.25443894       0.00000000
Si       1.56336759      -2.99245671      -1.13193851       0.00000000
Si      -1.25197772      -0.30274965      -3.40699398       0.00000000
Si       0.64453014       1.10734533      -3.43401430       0.00000000
Si       0.19810269      -2.94143643       2.24680073       0.00000000
