10
Lattice="16.28999089631971 0.0 0.0 0.0 16.28999089631971 0.0 0.0 0.0 34.28971787722196" Properties=species:S:1:pos:R:3:initial_magmoms:R:1 pbc="T T T"
Si       1.77096735      -0.17544330      -1.50579951       0.00000000
Si      -1.68230088      -1.68752997      -0.10938426       0.00000000
Si       1.23952239      -0.76000995       2.03835342       0.00000000
Si      -1.39548285       2.01036519      -0.64591578       0.00000000
Si      -1.46627919       0.38758797      -2.39530958       0.00000000
Si       1.90148283       1.51874928       2.51453500       0.00000000
Si      -2.48314986      -1.55080800       2.15133810       0.00000000
Si       0.92789469       0.40145076      -3.60155395       0.00000000
Si      -2.98354608       1.88678925       1.26330249       0.00000000
Si       2.98670212       1.93183110      -1.19547739       0.00000000
