10
Lattice="16.28999089631971 0.0 0.0 0.0 16.28999089631971 0.0 0.0 0.0 34.28971787722196" Properties=species:S:1:pos:R:3:initial_magmoms:R:1 pbc="T T T"
Si      -1.69754832      -0.89324586       1.47085827       0.00000000
Si       0.66196044       2.27875923       0.47618158       0.00000000
Si       1.85952209      -1.37417553      -0.89588796       0.00000000
Si      -1.23952239       0.76000995      -2.03835342       0.00000000
Si       1.67169839      -0.85172265       2.23377063       0.00000000
Si      -2.08420776       1.05546168       2.76217548       0.00000000
Si       0.53144496       0.58456665      -3.54415293       0.00000000
Si       2.59514917       2.42784531      -0.84695650       0.00000000
Si       3.54625874       0.26342559      -1.10529538       0.00000000
Si      -2.92182327      -0.92752002      -2.14773768       0.00000000
