10
Lattice="16.28999089631971 0.0 0.0 0.0 16.28999089631971 0.0 0.0 0.0 34.28971787722196" Properties=species:S:1:pos:R:3:initial_magmoms:R:1 pbc="T T T"
Si       0.60744595       0.45747207       2.21741443       0.00000000
Si      -1.28880846      -1.94644323       0.26433958       0.00000000
Si       2.18209274      -0.37085814      -0.79768215       0.00000000
Si      -0.92407536       1.67143545      -1.49314660       0.00000000
Si      -0.47846241       2.46022983       2.50284220       0.00000000
Si       1.77083540      -2.08334439      -2.35378471       0.00000000
Si       2.67830243       1.64848284      -2.05460675       0.00000000
Si      -1.12268304       0.45530550      -3.59809069       0.00000000
Si      -1.89518742      -2.78440083      -1.85630920       0.00000000
Si       3.51282284      -1.18920258       1.12065719       0.00000000
