10
Lattice="16.28999089631971 0.0 0.0 0.0 16.28999089631971 0.0 0.0 0.0 34.28971787722196" Properties=species:S:1:pos:R:3:initial_magmoms:R:1 pbc="T T T"
Si       1.93867290       0.93755466       0.91399294       0.00000000
Si       0.14832045      -0.91199565      -2.17708969       0.00000000
Si      -1.90020732       1.47528756      -0.17179158       0.00000000
Si      -0.49620969      -2.01934098       1.25692460       0.00000000
Si      -1.74818741      -2.32209063      -2.15006938       0.00000000
Si       1.39098681       0.83038275       3.26033678       0.00000000
Si      -3.60237779       0.02295261       0.56146015       0.00000000
Si      -2.67830243      -1.64848284       2.05460675       0.00000000
Si       3.82195980      -0.26277399       0.10653821       0.00000000
Si      -0.90746703      -3.73182723      -0.29917796       0.00000000
