10
Lattice="16.28999089631971 0.0 0.0 0.0 16.28999089631971 0.0 0.0 0.0 34.28971787722196" Properties=species:S:1:pos:R:3:initial_magmoms:R:1 pbc="T T T"
Si      -1.46878785       1.36709955      -1.24811214       0.00000000
Si       0.64581705      -1.80336816      -1.39254051       0.00000000
Si       1.79460414       1.51281990       0.38857130       0.00000000
Si      -0.85305843      -0.75901626       2.15641298       0.00000000
Si      -1.74879666      -2.89779552       1.48529425       0.00000000
Si      -1.84808421       3.20320763       0.16177898       0.00000000
Si       2.43476597      -0.92119950      -2.70690042       0.00000000
Si       1.76046030      -3.32394192       0.02396853       0.00000000
Si      -1.40874291      -2.58624927      -2.42881065       0.00000000
Si       1.50662952       2.45633556       2.54628729       0.00000000
