10
Lattice="16.28999089631971 0.0 0.0 0.0 16.28999089631971 0.0 0.0 0.0 34.28971787722196" Properties=species:S:1:pos:R:3:initial_magmoms:R:1 pbc="T T T"
Si       1.35553977       1.35653346       1.35753069       0.00000000
Si       1.35729909      -1.35741312      -1.35708492       0.00000000
Si      -1.35772263       1.35754344      -1.35715350       0.00000000
Si      -1.35958621      -1.35725022       1.35735924       0.00000000
Si      -2.71500278       0.00055386       2.71194101       0.00000000
Si      -0.00087966       2.71570590      -2.71389553       0.00000000
Si       2.71456560       2.71511946       0.00048006       0.00000000
Si      -2.71506867       2.71482624      -0.00006858       0.00000000
Si      -2.71502730      -2.71521720       0.00003429       0.00000000
Si       0.00356751       2.71565703       2.71464990       0.00000000
