10
Lattice="16.28999089631971 0.0 0.0 0.0 16.28999089631971 0.0 0.0 0.0 34.28971787722196" Properties=species:S:1:pos:R:3:initial_magmoms:R:1 pbc="T T T"
Si      -1.35541657       1.35780408       1.35458177       0.00000000
Si      -1.35544109      -1.35796698      -1.35732495       0.00000000
Si       1.35958621       1.35725022      -1.35735924       0.00000000
Si       1.36162246      -1.35918873       1.36353139       0.00000000
Si       0.00055712       2.68449426       2.71783885       0.00000000
Si      -2.71876909       0.02137248       2.70522022       0.00000000
Si      -2.71287211       2.71256193      -0.00116585       0.00000000
Si      -2.71272550      -0.00040725      -2.71420414       0.00000000
Si      -2.71259518      -2.71526607      -0.00037719       0.00000000
Si       2.71512598       2.71378368       0.00017145       0.00000000
