10
Lattice="16.28999089631971 0.0 0.0 0.0 16.28999089631971 0.0 0.0 0.0 34.28971787722196" Properties=species:S:1:pos:R:3:initial_magmoms:R:1 pbc="T T T"
Si      -1.42449534      -0.14923269      -1.85360032       0.00000000
Si       1.12117554       1.86160491      -0.88532672       0.00000000
Si      -1.65521061       0.46029024       1.60246228       0.00000000
Si       1.82876427      -1.41762096       0.50580791       0.00000000
Si      -2.37560491       2.01518703      -1.59526144       0.00000000
Si      -0.37973619       0.18733500       3.51178342       0.00000000
Si      -0.61349769       3.42746487      -0.80731757       0.00000000
Si       2.96212473      -1.66042341      -1.69981084       0.00000000
Si       3.10607946      -0.27303669       2.21518559       0.00000000
Si      -3.29905569      -1.26438093       1.48546570       0.00000000
