10
Lattice="16.28999089631971 0.0 0.0 0.0 16.28999089631971 0.0 0.0 0.0 34.28971787722196" Properties=species:S:1:pos:R:3:initial_magmoms:R:1 pbc="T T T"
Si       1.68673665       1.63760112      -0.20940742       0.00000000
Si       0.64154255      -1.29785688       1.90818958       0.00000000
Si      -0.44789910      -0.36189864      -2.37329557       0.00000000
Si      -1.85952209       1.37417553       0.89588796       0.00000000
Si      -0.18782370       0.52245288       3.12965859       0.00000000
Si      -1.32807713       1.95874218      -2.64826497       0.00000000
Si      -1.84893359      -2.37601053      -2.22725558       0.00000000
Si       0.73562708       3.80202084       0.04893145       0.00000000
Si      -3.09904448       2.13418548      -1.14246546       0.00000000
Si       3.11123199       1.78683381       1.64419289       0.00000000
