10
Lattice="16.2900001489832 0.0 0.0 0.0 16.2900001489832 0.0 0.0 0.0 29.11971093458229" Properties=species:S:1:pos:R:3:initial_magmoms:R:1 pbc="T T T"
Si       1.38323278       1.33998283       1.38525959       0.00000000
Si      -1.36422235      -1.32527133       1.44763401       0.00000000
Si      -1.35089713       1.42394149      -1.36729273       0.00000000
Si       1.36746406      -1.41597568      -1.36675693       0.00000000
Si      -2.69853626      -0.01057221      -2.68282226       0.00000000
Si      -2.71709057      -2.69902496       0.06589499       0.00000000
Si       2.75610513       2.66294261      -0.07911825       0.00000000
Si      -2.71880102       2.71513577       0.09904196       0.00000000
Si       2.67496463      -2.78731677       0.05918581       0.00000000
Si      -0.00692325       2.65660580       2.83329546       0.00000000
