10
Lattice="16.2900001489832 0.0 0.0 0.0 16.2900001489832 0.0 0.0 0.0 29.11971093458229" Properties=species:S:1:pos:R:3:initial_magmoms:R:1 pbc="T T T"
Si       1.35079939       1.39190721       1.35487317       0.00000000
Si      -1.31328352      -1.30821733       1.47615677       0.00000000
Si      -1.30750057       1.37134108      -1.42594274       0.00000000
Si       1.33560082      -1.37634211      -1.41399492       0.00000000
Si      -2.63132372      -2.67468770       0.11072479       0.00000000
Si       2.73613358       0.03166776       2.67682069       0.00000000
Si      -2.61661385      -0.04611699      -2.79937391       0.00000000
Si       2.75030589      -2.68338656      -0.01999359       0.00000000
Si       2.66276342       0.03078810      -2.79215222       0.00000000
Si      -2.67496463       2.78731677      -0.05918581       0.00000000
