10
Lattice="16.2900001489832 0.0 0.0 0.0 16.2900001489832 0.0 0.0 0.0 29.11971093458229" Properties=species:S:1:pos:R:3:initial_magmoms:R:1 pbc="T T T"
Si      -1.47400066       1.38025171      -1.19786843       0.00000000
Si      -1.40204773      -1.26188857       1.45680090       0.00000000
Si       1.39499416       1.40954113       1.33263154       0.00000000
Si       1.20591613      -1.44025267      -1.48871610       0.00000000
H       -0.55534240       2.34999542      -2.25657376       0.00000000
Si       2.56821626      -2.60244155       0.09059142       0.00000000
Si      -2.71116101      -2.67934664       0.08336973       0.00000000
Si      -0.09454716      -2.63322965       2.88274364       0.00000000
Si       2.63425592       0.10814931       2.89375380       0.00000000
Si      -0.01340667       2.81702973       2.74443957       0.00000000
