10
Lattice="16.2900001489832 0.0 0.0 0.0 16.2900001489832 0.0 0.0 0.0 29.11971093458229" Properties=species:S:1:pos:R:3:initial_magmoms:R:1 pbc="T T T"
Si       1.08357823      -0.53675551       1.96010598       0.00000000
Si       1.06474699       1.80485057      -1.05119244       0.00000000
Si       0.47478834      -1.98296543      -1.20252758       0.00000000
Si      -2.12854916       0.48863484       1.02911970       0.00000000
Si      -2.83343376      -1.74972521       0.34713607       0.00000000
Si      -0.93559987       2.74887237      -1.84514136       0.00000000
Si       2.68312592       1.21308373       2.07469204       0.00000000
Si      -1.22391658      -3.38586839      -0.44794851       0.00000000
Si       2.24777567       3.03586959       0.59669200       0.00000000
Si      -3.17259156       2.14508351      -0.38228357       0.00000000
