10
Lattice="16.2900001489832 0.0 0.0 0.0 16.2900001489832 0.0 0.0 0.0 29.11971093458229" Properties=species:S:1:pos:R:3:initial_magmoms:R:1 pbc="T T T"
Si       1.35878149       1.72943112       0.82944585       0.00000000
Si      -1.43488837       1.36283282      -1.29320636       0.00000000
Si       1.44477640      -1.19048950      -1.44550245       0.00000000
Si      -0.83209321      -1.77401360       1.37925511       0.00000000
Si       1.07183314      -3.22343265       1.39352377       0.00000000
Si       0.06147846      -2.58587462      -2.74715353       0.00000000
Si      -0.07877844       2.82783000      -2.53041552       0.00000000
Si      -2.79928992       0.05447376      -2.62214261       0.00000000
Si      -3.00719919       2.39360375       0.10905332       0.00000000
Si       3.60569379       0.91686963       0.98057715       0.00000000
