10
Lattice="16.2900001489832 0.0 0.0 0.0 16.2900001489832 0.0 0.0 0.0 29.11971093458229" Properties=species:S:1:pos:R:3:initial_magmoms:R:1 pbc="T T T"
H        0.94610692      -1.13710717      -0.36717044       0.00000000
Si       1.09740844       1.35122293       1.54281761       0.00000000
Si      -1.64825480      -1.19715211       1.25118371       0.00000000
Si       0.15661206       1.49622022      -1.87755160       0.00000000
Si       2.48873735       2.68060097       0.24339914       0.00000000
Si       2.50238837      -0.08226450       2.70919890       0.00000000
Si      -0.25935309      -2.67867875       2.54144607       0.00000000
H        3.26578665       1.65638351      -0.56448560       0.00000000
Si      -0.41073606       2.73833273       2.70411460       0.00000000
Si       1.83006749       0.46788138      -3.39774611       0.00000000
