10
Lattice="16.2900001489832 0.0 0.0 0.0 16.2900001489832 0.0 0.0 0.0 29.11971093458229" Properties=species:S:1:pos:R:3:initial_magmoms:R:1 pbc="T T T"
Si      -1.32045112      -1.35754345      -1.38839579       0.00000000
Si       1.64825480       1.19715211      -1.25118371       0.00000000
Si      -1.44089938       1.27591426       1.42172038       0.00000000
Si       1.38890170      -1.48152664       1.29026236       0.00000000
H        2.59436171       0.06004494      -1.61835414       0.00000000
Si       2.74566324       2.54837504       0.29163390       0.00000000
Si      -0.10326231       2.58297500       2.84211582       0.00000000
Si      -2.71810055      -2.72052776       0.00208788       0.00000000
Si       2.71844264      -0.20474901       2.79753354       0.00000000
Si       0.01602936      -2.80448643       2.75464021       0.00000000
