10
Lattice="16.2900001489832 0.0 0.0 0.0 16.2900001489832 0.0 0.0 0.0 29.11971093458229" Properties=species:S:1:pos:R:3:initial_magmoms:R:1 pbc="T T T"
Si      -1.27777132      -1.50296103      -1.30453393       0.00000000
Si       1.42698772      -1.37689271       1.29256573       0.00000000
Si      -1.32989932       1.44596883       1.34993156       0.00000000
Si       1.06836337       1.62882408      -1.40473486       0.00000000
H       -2.82910550       1.44144021      -1.39398968       0.00000000
Si      -2.31280535       2.55844552      -0.50115023       0.00000000
Si       2.66414807       2.68270564       0.01132757       0.00000000
Si       2.73610101       0.04056536       2.66599690       0.00000000
Si      -0.48610989       3.44752115      -1.65123321       0.00000000
Si      -2.70564522       0.15067599       2.74299815       0.00000000
