10
Lattice="16.2900001489832 0.0 0.0 0.0 16.2900001489832 0.0 0.0 0.0 29.11971093458229" Properties=species:S:1:pos:R:3:initial_magmoms:R:1 pbc="T T T"
Si       1.39013974       0.75372202       1.73626276       0.00000000
Si      -1.35610993      -1.46499718       1.23720916       0.00000000
Si       1.38614869      -1.25855075      -1.42340059       0.00000000
Si      -1.37204155       1.47830122      -1.27090066       0.00000000
Si       0.01029528       2.43975332       2.66567658       0.00000000
Si      -0.04106709      -2.52084494      -2.81045978       0.00000000
Si       0.07877844      -2.82783000       2.53041552       0.00000000
Si       1.43755993      -1.09839887       3.35986137       0.00000000
Si       2.65650806       0.18855675      -2.75821902       0.00000000
Si       2.89874037      -2.54202194      -0.10122012       0.00000000
