10
Lattice="16.2900001489832 0.0 0.0 0.0 16.2900001489832 0.0 0.0 0.0 29.11971093458229" Properties=species:S:1:pos:R:3:initial_magmoms:R:1 pbc="T T T"
Si       1.24737418       0.06476904      -2.02084970       0.00000000
Si      -0.07011216       2.35051670       0.36647156       0.00000000
Si       0.82080424      -0.70760503       2.15514981       0.00000000
Si      -2.06296562      -1.24214509       0.29670073       0.00000000
Si      -1.53683119      -0.98111413       2.59823533       0.00000000
Si       1.93971548       2.37946403       1.55403161       0.00000000
Si      -0.49987494      -3.43818372      -0.21161294       0.00000000
H       -2.99426493       1.89249077       0.18517224       0.00000000
Si      -0.48490443       0.63029269      -3.56905737       0.00000000
Si      -0.97057450       1.06202656       3.64063362       0.00000000
