10
Lattice="16.2900001489832 0.0 0.0 0.0 16.2900001489832 0.0 0.0 0.0 29.11971093458229" Properties=species:S:1:pos:R:3:initial_magmoms:R:1 pbc="T T T"
Si       1.88485076      -0.70299496       1.16012928       0.00000000
Si       0.19839591       2.28325529      -0.41242247       0.00000000
Si      -1.74599480      -0.53678808       1.47424361       0.00000000
Si      -0.54525888      -0.99113248      -2.06837307       0.00000000
Si      -2.89950600      -0.69421465      -1.77749628       0.00000000
H        3.12463380       1.27863469      -0.86747619       0.00000000
Si       1.47266488      -2.97108426       1.37148015       0.00000000
Si      -2.00541305       2.99265222      -0.65114586       0.00000000
Si       0.52134516       0.40472505      -3.61142655       0.00000000
Si      -3.12113145      -1.95237281       0.20989488       0.00000000
