10
Lattice="16.2900001489832 0.0 0.0 0.0 16.2900001489832 0.0 0.0 0.0 29.11971093458229" Properties=species:S:1:pos:R:3:initial_magmoms:R:1 pbc="T T T"
Si      -0.49661694       0.70372801      -2.20436212       0.00000000
Si       1.28912545      -1.98993755      -0.28307271       0.00000000
Si      -1.83005120      -0.83241901       1.30267027       0.00000000
Si       0.93677275       1.76559981       1.33033399       0.00000000
Si      -0.52890372      -2.02282706       2.87271772       0.00000000
Si      -0.46380888       2.99643150      -1.93902331       0.00000000
Si      -0.04917951      -3.13532004      -1.85076147       0.00000000
Si       2.25124544       0.73000378       2.90349726       0.00000000
Si       3.12059388      -1.31147533      -1.67150053       0.00000000
Si      -2.53097732      -0.22959126      -2.81083834       0.00000000
