10
Lattice="16.2900001489832 0.0 0.0 0.0 16.2900001489832 0.0 0.0 0.0 29.11971093458229" Properties=species:S:1:pos:R:3:initial_magmoms:R:1 pbc="T T T"
Si       1.52441821       1.19193931       1.32177280       0.00000000
Si       1.36454815      -1.39624849      -1.30529104       0.00000000
Si      -1.37603260      -1.26379450       1.42907893       0.00000000
Si      -1.40085856       1.43850475      -1.24734282       0.00000000
Si       0.11070684       2.42773130       2.72653677       0.00000000
Si       0.06936282      -2.65176767       2.65300950       0.00000000
Si      -2.69452892       0.08118936      -2.66337612       0.00000000
Si      -0.03067407      -2.77936725      -2.57590051       0.00000000
Si      -0.01040931       2.75732688      -2.65466933       0.00000000
Si       2.75937942      -0.03899826      -2.66116302       0.00000000
