10
Lattice="16.2900001489832 0.0 0.0 0.0 16.2900001489832 0.0 0.0 0.0 29.11971093458229" Properties=species:S:1:pos:R:3:initial_magmoms:R:1 pbc="T T T"
Si      -1.52441821      -1.19193931      -1.32177280       0.00000000
Si      -1.41371137       1.23579199       1.40476398       0.00000000
Si       1.26573301       1.48830328      -1.31396872       0.00000000
Si       1.44705700      -1.40455639       1.27975306       0.00000000
Si      -0.15987006      -2.58818780      -2.62706384       0.00000000
Si      -0.04930983       2.54415105       2.73370022       0.00000000
Si       2.62060490       0.15635142      -2.67863485       0.00000000
Si      -0.01026270      -2.65668725       2.68684661       0.00000000
Si      -2.90045082      -2.45573381       0.10730613       0.00000000
Si       2.83035495      -0.00917127       2.58140413       0.00000000
