10
Lattice="16.2900001489832 0.0 0.0 0.0 16.2900001489832 0.0 0.0 0.0 29.11971093458229" Properties=species:S:1:pos:R:3:initial_magmoms:R:1 pbc="T T T"
Si       1.00703152      -0.43507332      -1.03307998       0.00000000
H       -0.26627634       1.73229491       1.09370722       0.00000000
Si      -1.07085574       1.29458260       2.29469146       0.00000000
Si       2.06228144      -2.20827242       0.05960805       0.00000000
Si       2.31516740       1.41094207      -1.55126524       0.00000000
Si      -0.60660703      -1.02587905       2.95876647       0.00000000
Si       0.01930365      -1.61205841      -2.80201507       0.00000000
H       -0.16316064       3.11327967      -0.94822515       0.00000000
H       -1.11210202      -2.36310887      -2.06869338       0.00000000
Si       1.68673178      -1.70605172       2.35467807       0.00000000
