10
Lattice="16.2900001489832 0.0 0.0 0.0 16.2900001489832 0.0 0.0 0.0 29.11971093458229" Properties=species:S:1:pos:R:3:initial_magmoms:R:1 pbc="T T T"
Si       0.41218587       2.26808930      -0.21135086       0.00000000
Si      -0.65692684      -1.24926382      -1.87370780       0.00000000
Si       2.00034686      -0.94402180       0.79394892       0.00000000
Si      -2.23699169      -0.60378886       1.46285780       0.00000000
Si      -2.53724897      -1.98873209      -0.61192161       0.00000000
Si       0.93559987      -2.74887237       1.84514136       0.00000000
Si      -0.04326624       2.80018587       2.04720304       0.00000000
Si      -1.47266488       2.97108426      -1.37148015       0.00000000
Si      -2.27901989       1.79706395       2.16566202       0.00000000
Si       3.03378447      -1.66573397      -1.20613843       0.00000000
