10
Lattice="16.2900001489832 0.0 0.0 0.0 16.2900001489832 0.0 0.0 0.0 29.11971093458229" Properties=species:S:1:pos:R:3:initial_magmoms:R:1 pbc="T T T"
Si       1.23926176      -1.30139182       1.56112226       0.00000000
Si      -1.39499416      -1.40954113      -1.33263154       0.00000000
Si       1.84332755       0.83500912      -1.32654552       0.00000000
Si      -1.40840083       1.40748859       1.41180803       0.00000000
H       -0.20294082       2.94906018      -1.49680847       0.00000000
Si       2.59340060      -2.61658127       0.12252118       0.00000000
Si       2.69102657       2.68525991       0.05414810       0.00000000
Si      -2.86899483      -0.02928942      -2.53049997       0.00000000
Si       3.63338679      -0.76356118      -0.98304941       0.00000000
Si      -2.79704190      -2.67142970       0.12416936       0.00000000
