10
Lattice="16.2900001489832 0.0 0.0 0.0 16.2900001489832 0.0 0.0 0.0 29.11971093458229" Properties=species:S:1:pos:R:3:initial_magmoms:R:1 pbc="T T T"
Si       1.38533419      -1.36023945       1.32194752       0.00000000
Si       1.37800369       1.34947176      -1.34386301       0.00000000
Si      -1.31843116       1.37299452       1.40313327       0.00000000
Si      -1.35079939      -1.39190721      -1.35487317       0.00000000
Si      -2.66408291      -2.70012454       0.12128360       0.00000000
Si      -2.64253124       2.73539239      -0.02879939       0.00000000
Si       2.68180643       2.70113452       0.14976267       0.00000000
Si      -2.65829996      -0.02056613      -2.78081592       0.00000000
Si       2.71428869      -0.04835198       2.73122505       0.00000000
Si       2.76529269      -2.68116298      -0.04082583       0.00000000
