10
Lattice="16.2900001489832 0.0 0.0 0.0 16.2900001489832 0.0 0.0 0.0 29.11971093458229" Properties=species:S:1:pos:R:3:initial_magmoms:R:1 pbc="T T T"
Si       0.45545211      -0.53209656      -2.25855390       0.00000000
Si       0.13183497       2.42949062      -0.08278734       0.00000000
Si       1.79067827      -0.88141933       1.42075070       0.00000000
Si      -2.23575365      -1.00312192       0.11845898       0.00000000
H       -0.80003449       0.18538020       2.95171950       0.00000000
Si       0.04326624      -2.80018587      -2.04720304       0.00000000
Si      -1.42939864       0.17089839      -3.41868318       0.00000000
Si      -3.17539344      -0.36588969      -1.94443958       0.00000000
Si       3.24136794       1.03747753       1.61107713       0.00000000
Si       1.92624365       2.96986251       1.41248070       0.00000000
