10
Lattice="16.2900001489832 0.0 0.0 0.0 16.2900001489832 0.0 0.0 0.0 29.11971093458229" Properties=species:S:1:pos:R:3:initial_magmoms:R:1 pbc="T T T"
Si       1.00403416       0.70936435      -0.88241460       0.00000000
Si      -1.67744648      -1.80502976       0.79907399       0.00000000
H       -0.93472021      -2.34704693      -0.67094726       0.00000000
H        1.27663102      -1.03426840       2.12591362       0.00000000
Si      -0.17888049      -1.01221174       2.57202759       0.00000000
Si      -0.44136126       2.09733752      -2.10634517       0.00000000
H       -1.66459367       1.87269842       1.82190383       0.00000000
Si       2.44882685       1.89638408       0.47319530       0.00000000
Si       2.47498859      -0.80352055      -1.94441046       0.00000000
Si      -3.33209672      -0.22820661       0.19058851       0.00000000
