10
Lattice="16.2900001489832 0.0 0.0 0.0 16.2900001489832 0.0 0.0 0.0 29.11971093458229" Properties=species:S:1:pos:R:3:initial_magmoms:R:1 pbc="T T T"
Si      -0.74272627       0.54201717       1.47002125       0.00000000
Si       0.64518175      -1.15308766      -1.23123962       0.00000000
H        0.93472021       2.34704693       0.67094726       0.00000000
Si      -2.15843805      -1.31092147       1.97932499       0.00000000
Si       1.96942844      -2.59349834       0.09379459       0.00000000
Si       1.96131602       0.23457600      -2.63609095       0.00000000
Si      -2.39737652       2.11884032       0.86153577       0.00000000
Si       0.75583972       1.33483519       3.24297485       0.00000000
Si       1.93875437       3.05641128      -0.21146734       0.00000000
Si      -0.80967817      -2.42523893      -2.60143850       0.00000000
