10
Lattice="16.2900001489832 0.0 0.0 0.0 16.2900001489832 0.0 0.0 0.0 29.11971093458229" Properties=species:S:1:pos:R:3:initial_magmoms:R:1 pbc="T T T"
Si       1.43220052       1.31963662      -1.33951835       0.00000000
Si       1.31600395      -1.24968736       1.53032817       0.00000000
Si      -1.42886107       1.36954918       1.31408520       0.00000000
Si      -1.32954094      -1.27677763      -1.50727118       0.00000000
Si       2.62192439      -2.63399528       0.13566873       0.00000000
Si       0.02722059       2.75312406      -2.50589964       0.00000000
Si      -2.70241328      -2.59973741      -0.04289333       0.00000000
Si      -0.10591758       2.77871565       2.62985933       0.00000000
Si       2.72507267       2.74204686       0.04688273       0.00000000
Si      -0.04012227      -2.63500526       2.84048220       0.00000000
