10
Lattice="16.2900001489832 0.0 0.0 0.0 16.2900001489832 0.0 0.0 0.0 29.11971093458229" Properties=species:S:1:pos:R:3:initial_magmoms:R:1 pbc="T T T"
H        1.03791736      -0.89034625       0.65571765       0.00000000
Si      -1.15919641       1.21894813       1.64931131       0.00000000
Si       1.24071157       1.46575792      -1.38519553       0.00000000
Si      -1.37575567      -1.41563359      -1.31947234       0.00000000
Si      -2.54441657       2.59980257       0.14152180       0.00000000
Si       2.69148269       0.00342090      -2.55470136       0.00000000
Si      -2.46299915      -0.33208794       2.81066362       0.00000000
Si      -2.71827974      -0.05157414      -2.72243089       0.00000000
Si      -0.00636939      -2.75463903      -2.68827347       0.00000000
Si      -2.62555706      -2.84615625       0.09787135       0.00000000
