10
Lattice="16.2900001489832 0.0 0.0 0.0 16.2900001489832 0.0 0.0 0.0 29.11971093458229" Properties=species:S:1:pos:R:3:initial_magmoms:R:1 pbc="T T T"
Si      -1.56792392       1.75004775      -0.16548732       0.00000000
Si       1.69053223       1.41216871       0.96712384       0.00000000
Si      -1.55836169      -1.61443675       0.95728138       0.00000000
Si       1.16139067      -1.08100441      -1.92012462       0.00000000
H       -0.80946151       0.36782983       3.08488394       0.00000000
Si       2.66112302      -2.50330061      -0.73498150       0.00000000
Si      -2.00762360       2.08955090      -2.41052967       0.00000000
Si      -0.29660344      -3.23071428       2.04947438       0.00000000
Si      -2.52579222      -2.89496109      -0.82772778       0.00000000
Si       2.73569864       2.73215882      -0.72047989       0.00000000
