10
Lattice="16.2900001489832 0.0 0.0 0.0 16.2900001489832 0.0 0.0 0.0 29.11971093458229" Properties=species:S:1:pos:R:3:initial_magmoms:R:1 pbc="T T T"
Si      -1.84256192       1.13715604       0.97516088       0.00000000
Si       1.79440868       0.54037188       1.49526804       0.00000000
Si      -0.13183497      -2.42949062       0.08278734       0.00000000
Si      -0.02453274       1.17004555      -2.18062955       0.00000000
Si      -0.62113771       2.71520093       2.31015403       0.00000000
Si       2.69907383       2.39594951       0.32366559       0.00000000
Si       0.32361714      -2.96158719      -2.17576656       0.00000000
Si       3.10953297      -1.39201309       1.69386447       0.00000000
H       -0.93186946      -2.24411042       3.03450684       0.00000000
Si      -1.31365819       3.15998310      -1.89755684       0.00000000
