10
Lattice="16.2900001489832 0.0 0.0 0.0 16.2900001489832 0.0 0.0 0.0 29.11971093458229" Properties=species:S:1:pos:R:3:initial_magmoms:R:1 pbc="T T T"
Si      -0.26930628      -1.72322138      -1.52147578       0.00000000
Si       1.96895603       0.34824762      -1.18619143       0.00000000
Si       0.54543807      -0.63236152       2.17352434       0.00000000
Si      -0.90945442       2.10683459      -0.56128243       0.00000000
Si       1.02174139      -0.53059788      -3.17029205       0.00000000
Si      -2.30682041       1.41465619      -2.38132260       0.00000000
Si      -1.56787993       2.90458848       1.55566232       0.00000000
Si       2.72517041       2.46822824      -0.65938673       0.00000000
Si       1.53295417       1.24010884       3.17623247       0.00000000
Si      -2.51813755      -2.24577200      -1.77985497       0.00000000
