10
Lattice="16.2900001489832 0.0 0.0 0.0 16.2900001489832 0.0 0.0 0.0 29.11971093458229" Properties=species:S:1:pos:R:3:initial_magmoms:R:1 pbc="T T T"
Si       0.47020369       1.18029326       0.86304999       0.00000000
Si      -1.60249618      -0.43063300      -1.60510759       0.00000000
Si       0.40658211      -0.07846323      -2.74395036       0.00000000
Si      -1.84052567       1.80533242       1.38688447       0.00000000
Si       0.29820474      -2.84363814       0.81925395       0.00000000
Si       2.63810036       0.14761477       1.40688971       0.00000000
Si      -1.35540946      -2.67464568      -0.86037098       0.00000000
Si       2.46021356      -1.93846799       0.28947905       0.00000000
Si       0.99621822       2.90230103      -0.70912320       0.00000000
Si      -2.57691512       1.70149996      -0.79930695       0.00000000
