10
Lattice="16.2900001489832 0.0 0.0 0.0 16.2900001489832 0.0 0.0 0.0 29.11971093458229" Properties=species:S:1:pos:R:3:initial_magmoms:R:1 pbc="T T T"
Si      -1.30394935       1.32765130       1.45452956       0.00000000
Si       1.37049400      -1.36671472       1.35994874       0.00000000
Si       1.39478239       1.36213723      -1.35253195       0.00000000
Si      -1.42576597      -1.37720548      -1.30817389       0.00000000
Si       0.08237853      -2.76431529      -2.46947088       0.00000000
Si      -0.05075964      -2.73872370       2.66628809       0.00000000
Si      -2.66880701       2.73730646       0.14361841       0.00000000
Si      -0.01992267       2.66918168      -2.74653328       0.00000000
Si       2.76731265       0.05818788       2.66212397       0.00000000
Si       2.86993965      -0.01729998      -2.58620306       0.00000000
