10
Lattice="16.2900001489832 0.0 0.0 0.0 16.2900001489832 0.0 0.0 0.0 29.11971093458229" Properties=species:S:1:pos:R:3:initial_magmoms:R:1 pbc="T T T"
Si      -1.29153637       1.31294143       1.43321393       0.00000000
Si       1.38064267       1.38939040      -1.27914154       0.00000000
Si       1.19172754      -1.31549896       1.53134736       0.00000000
Si      -1.39681864      -1.42490260      -1.30217523       0.00000000
Si      -0.72643627      -2.10072584       2.75067701       0.00000000
Si      -2.46272222      -0.31146480       2.65152440       0.00000000
Si       2.75709882      -0.04513959      -2.53143471       0.00000000
Si      -2.68561829       2.65675241       0.09670656       0.00000000
Si       2.56430666      -2.78689323       0.31612358       0.00000000
Si      -0.00674406       2.69808014      -2.68061499       0.00000000
