10
Lattice="16.2900001489832 0.0 0.0 0.0 16.2900001489832 0.0 0.0 0.0 29.11971093458229" Properties=species:S:1:pos:R:3:initial_magmoms:R:1 pbc="T T T"
Si       1.32585940       1.34892604       1.39818292       0.00000000
Si       0.43176645      -2.33794082       0.27183250       0.00000000
Si      -0.20248470       0.40795047      -2.38251651       0.00000000
Si      -2.08935542       0.92400139       0.83797792       0.00000000
Si      -1.64638145      -1.19428507       2.06333536       0.00000000
Si      -2.46958031      -0.24467580      -2.71785910       0.00000000
Si      -3.20789199       1.46295604      -1.16828280       0.00000000
Si       1.04787055       3.54525789       0.67682944       0.00000000
Si       2.78601357      -2.63485865      -0.01904429       0.00000000
Si       0.28367406       1.52186068       3.52651347       0.00000000
