10
Lattice="16.2900001489832 0.0 0.0 0.0 16.2900001489832 0.0 0.0 0.0 29.11971093458229" Properties=species:S:1:pos:R:3:initial_magmoms:R:1 pbc="T T T"
Si       1.36578619       1.39413079       1.33404093       0.00000000
Si       1.47515725      -1.37943721      -1.23367111       0.00000000
Si      -1.39478239      -1.36213723       1.35253195       0.00000000
Si      -1.41470506       1.30704445      -1.39400133       0.00000000
Si       0.07892505      -2.79707448      -2.41635740       0.00000000
Si      -0.01417230       2.71505432       2.69681429       0.00000000
Si      -2.75030589       2.68338656       0.01999359       0.00000000
Si      -0.02428839      -2.72885195       2.71248069       0.00000000
Si       2.73220769      -0.07954407      -2.72853730       0.00000000
Si      -0.08754246       2.71417466      -2.77215863       0.00000000
