10
Lattice="16.2900001489832 0.0 0.0 0.0 16.2900001489832 0.0 0.0 0.0 29.11971093458229" Properties=species:S:1:pos:R:3:initial_magmoms:R:1 pbc="T T T"
H       -0.96195709      -0.92100403      -0.74345534       0.00000000
Si       1.38660481       1.18892566      -1.55743862       0.00000000
Si      -1.29182959       1.40814019       1.45636410       0.00000000
Si       1.32620149      -1.37902996       1.45918871       0.00000000
Si       2.62524755       2.64723417      -0.11572173       0.00000000
Si       2.71922456      -0.47874681      -2.61789113       0.00000000
Si      -0.11126070      -2.61444728       2.85805304       0.00000000
Si       2.66038508       0.07791507       2.84174309       0.00000000
Si      -2.71881731       2.78503291       0.16379837       0.00000000
Si      -2.63435366       0.14561631       2.97614511       0.00000000
