10
Lattice="16.2900001489832 0.0 0.0 0.0 16.2900001489832 0.0 0.0 0.0 29.11971093458229" Properties=species:S:1:pos:R:3:initial_magmoms:R:1 pbc="T T T"
Si      -1.18879534       0.09568746      -0.96214437       0.00000000
Si       1.49551975      -0.66919321       1.71858710       0.00000000
H       -1.48357755      -1.66532672       1.05390058       0.00000000
Si      -0.83614942      -0.98810254       2.25168165       0.00000000
Si      -0.09052353       1.54715905      -2.44687107       0.00000000
Si       2.77283496       1.03508290       0.31393960       0.00000000
H        1.66459367      -1.87269842      -1.82190383       0.00000000
Si      -1.66750306      -2.10090503      -1.63131533       0.00000000
Si      -3.04824999       0.81974539       0.33758481       0.00000000
Si       1.51185862       2.62578512      -1.03535132       0.00000000
