10
Lattice="16.2900001489832 0.0 0.0 0.0 16.2900001489832 0.0 0.0 0.0 29.11971093458229" Properties=species:S:1:pos:R:3:initial_magmoms:R:1 pbc="T T T"
Si      -1.37204155       1.31033503       1.31499664       0.00000000
Si       0.92395252       1.83697445      -1.14672257       0.00000000
Si       1.46297315      -1.42537501       1.17724294       0.00000000
Si      -1.60362019      -0.95576689      -1.44684196       0.00000000
Si      -0.25778925      -0.72084880      -3.35159137       0.00000000
Si      -2.54598041       2.49305420      -0.40964445       0.00000000
Si       1.34175844       1.02899044      -3.23700531       0.00000000
Si       0.05517423       2.60319089       2.68387640       0.00000000
Si      -2.69394248      -0.14193477       2.59095540       0.00000000
Si       0.07861554      -2.80373709       2.49325877       0.00000000
