10
Lattice="16.2900001489832 0.0 0.0 0.0 16.2900001489832 0.0 0.0 0.0 29.11971093458229" Properties=species:S:1:pos:R:3:initial_magmoms:R:1 pbc="T T T"
Si      -1.30380274      -1.55103607       1.16135231       0.00000000
Si       1.15919641      -1.21894813      -1.64931131       0.00000000
Si       1.59079996       0.95943214       1.57444453       0.00000000
Si      -1.38522016       1.38085444      -1.50778951       0.00000000
H        0.74911195       2.11374155       2.07285750       0.00000000
H        2.19711377      -2.10929438      -0.99359366       0.00000000
H       -2.05421789      -0.93214639       2.30101044       0.00000000
H       -0.46835379       3.07318998       1.51672926       0.00000000
H       -2.58357773       1.15010659       2.56253456       0.00000000
Si       2.39990798       0.24680979      -3.03450684       0.00000000
