10
Lattice="16.2900001489832 0.0 0.0 0.0 16.2900001489832 0.0 0.0 0.0 29.11971093458229" Properties=species:S:1:pos:R:3:initial_magmoms:R:1 pbc="T T T"
Si      -2.23669847      -0.20914731      -0.61343583       0.00000000
Si      -0.06670755       1.85010419       1.43900876       0.00000000
Si      -0.05642856      -2.40451805      -0.06901371       0.00000000
Si       1.78103459       0.99303841      -1.40913193       0.00000000
Si       2.22400856      -1.12524805      -0.18377450       0.00000000
Si       2.10147518       2.43643016       0.48644477       0.00000000
Si      -0.85098961       0.66911176       3.40846216       0.00000000
Si      -0.42182955      -2.80482852      -2.40770506       0.00000000
Si       0.66249802       1.53199306      -3.41539266       0.00000000
Si      -1.90454537       3.26858853       0.71890742       0.00000000
