10
Lattice="16.2900001489832 0.0 0.0 0.0 16.2900001489832 0.0 0.0 0.0 29.11971093458229" Properties=species:S:1:pos:R:3:initial_magmoms:R:1 pbc="T T T"
Si      -0.86832217       2.20451269       0.17797967       0.00000000
Si      -1.69059251      -1.37507149      -0.96633761       0.00000000
Si       0.28877283      -1.18954468       2.06237441       0.00000000
Si       1.99671419      -0.13802517      -1.54855711       0.00000000
H        2.74561437       1.84424142       0.57904545       0.00000000
Si      -0.12601944      -2.90976870      -1.87315453       0.00000000
Si      -0.28605240       2.95901500      -2.00698872       0.00000000
H       -2.63537993      -1.64757062       1.88107509       0.00000000
Si       3.25847244      -1.75430270      -0.45636411       0.00000000
Si       1.02928366      -1.41854950      -3.33356627       0.00000000
