10
Lattice="16.2900001489832 0.0 0.0 0.0 16.2900001489832 0.0 0.0 0.0 29.11971093458229" Properties=species:S:1:pos:R:3:initial_magmoms:R:1 pbc="T T T"
Si       0.17788680       2.08608276       1.11741067       0.00000000
Si      -2.16200882      -0.90517015       0.52977490       0.00000000
Si      -0.01756062       0.75072466      -2.28339301       0.00000000
Si       1.83783782      -1.41848434       0.72010133       0.00000000
H       -2.46021356       1.93846799      -0.28947905       0.00000000
Si       0.80791885       1.50369733       3.30147635       0.00000000
Si      -0.33215310      -3.47773584      -1.33234325       0.00000000
Si      -1.99000988       3.11876125       0.57357095       0.00000000
Si       1.58231287       2.50172863      -2.30995019       0.00000000
Si      -1.92425969      -3.27642402       0.35275618       0.00000000
