10
Lattice="16.2900001489832 0.0 0.0 0.0 16.2900001489832 0.0 0.0 0.0 29.11971093458229" Properties=species:S:1:pos:R:3:initial_magmoms:R:1 pbc="T T T"
H       -1.13140567      -0.75105046       0.73332168       0.00000000
Si      -1.21977892       1.55261620      -1.22378497       0.00000000
Si       0.98772787       1.17698509       1.76893508       0.00000000
Si       1.37984446      -1.68603131      -0.92941381       0.00000000
H       -1.97019407       2.17150589      -0.08412684       0.00000000
H       -0.01930365       1.61205841       2.80201507       0.00000000
Si       0.49650291      -2.43673967       2.55100316       0.00000000
Si       2.04297779      -0.59621401       2.86162311       0.00000000
Si      -0.01029528      -2.43975332      -2.66567658       0.00000000
Si      -1.91831042      -2.41098518       2.08767944       0.00000000
