10
Lattice="16.2900001489832 0.0 0.0 0.0 16.2900001489832 0.0 0.0 0.0 29.11971093458229" Properties=species:S:1:pos:R:3:initial_magmoms:R:1 pbc="T T T"
H        1.49011147      -0.58521826      -0.47980548       0.00000000
Si      -1.44011746      -1.29554371      -1.28222823       0.00000000
Si      -0.07135020      -0.49806675       2.30581519       0.00000000
Si      -0.11207520       2.36652651      -0.20398358       0.00000000
Si       3.03103146      -1.36109467      -0.22136804       0.00000000
Si      -3.31288104      -0.52994628      -0.14117236       0.00000000
Si       1.96301018       0.43525251       2.91229141       0.00000000
H        1.27596313      -2.40872087      -2.34617511       0.00000000
Si      -3.16934985       1.03627402       1.65434902       0.00000000
Si      -1.98153191       2.97602013       1.11059666       0.00000000
