10
Lattice="16.2900001489832 0.0 0.0 0.0 16.2900001489832 0.0 0.0 0.0 29.11971093458229" Properties=species:S:1:pos:R:3:initial_magmoms:R:1 pbc="T T T"
Si      -1.06660405      -1.39585753       1.54305348       0.00000000
Si       0.56625670       2.04314069       1.04239829       0.00000000
Si      -0.52613442      -0.26103096      -2.30153459       0.00000000
Si       2.35763543       0.27350910      -0.44308552       0.00000000
Si       1.53683119       0.98111413      -2.59823533       0.00000000
Si      -0.52134516      -0.40472505       3.61142655       0.00000000
Si       1.46008900      -3.34656876      -0.59401298       0.00000000
Si      -0.32294925       1.87853024       3.19900408       0.00000000
Si      -0.29786265      -3.58899654       1.05701639       0.00000000
Si       3.24014619      -1.89302834      -0.15293672       0.00000000
