10
Lattice="16.2900001489832 0.0 0.0 0.0 16.2900001489832 0.0 0.0 0.0 29.11971093458229" Properties=species:S:1:pos:R:3:initial_magmoms:R:1 pbc="T T T"
Si       2.03436038       0.93331927       0.60647622       0.00000000
Si       0.27798885      -2.19633185       0.72135348       0.00000000
Si       0.07135020       0.49806675      -2.30581519       0.00000000
Si      -1.85481200       0.82256356       1.24297486       0.00000000
H        1.56146167      -0.08715150      -2.78562067       0.00000000
Si      -3.09799965       1.53434078      -0.65146617       0.00000000
Si      -0.76419649      -2.02339721       2.84968403       0.00000000
Si      -2.81678538      -1.17786475       2.05672518       0.00000000
Si      -1.04787055      -3.54525789      -0.67682944       0.00000000
Si       2.53097732       0.22959126       2.81083834       0.00000000
