10
Lattice="16.2900001489832 0.0 0.0 0.0 16.2900001489832 0.0 0.0 0.0 29.11971093458229" Properties=species:S:1:pos:R:3:initial_magmoms:R:1 pbc="T T T"
Si      -1.37645614       1.43452999       1.25229317       0.00000000
Si      -1.33819093      -1.39429369      -1.34246818       0.00000000
Si       1.22140792      -1.30284163       1.55863253       0.00000000
Si       1.30104175       1.35977518      -1.44294283       0.00000000
Si      -2.75709882       0.04513959       2.53143471       0.00000000
Si       2.63981407      -2.67169034       0.28182056       0.00000000
Si      -2.65447181      -0.03034827      -2.71689233       0.00000000
Si       0.07817571      -2.77650021      -2.59815670       0.00000000
Si       2.70460918      -0.06520887      -2.67797674       0.00000000
Si       2.65676056       2.75691963      -0.08846568       0.00000000
