10
Lattice="16.2900001489832 0.0 0.0 0.0 16.2900001489832 0.0 0.0 0.0 29.11971093458229" Properties=species:S:1:pos:R:3:initial_magmoms:R:1 pbc="T T T"
Si       1.19811322       1.29037978      -1.59543984       0.00000000
Si      -0.66313333       1.86640722       1.31562854       0.00000000
Si      -1.60238215      -1.07862607      -1.41151975       0.00000000
Si       1.26097633      -1.59070222       1.34929093       0.00000000
H       -1.51185862      -2.62578512       1.03535132       0.00000000
Si       2.56251476       2.59873884      -0.26650359       0.00000000
Si       2.60156189      -2.60209946      -0.31335721       0.00000000
Si      -2.70065396      -2.53009766       0.07320695       0.00000000
Si      -0.28862622      -2.40114602      -2.89289768       0.00000000
Si      -2.57297294       2.83684325       0.29058560       0.00000000
