10
Lattice="16.2900001489832 0.0 0.0 0.0 16.2900001489832 0.0 0.0 0.0 29.11971093458229" Properties=species:S:1:pos:R:3:initial_magmoms:R:1 pbc="T T T"
Si      -0.75621439      -2.11998062      -0.52680469       0.00000000
Si       2.20576376      -0.06041961      -0.82865961       0.00000000
Si      -1.93119581       1.06212430      -0.90978713       0.00000000
Si       0.43256466      -0.33453144       2.32523804       0.00000000
Si       0.34924131       2.34139430      -1.02454791       0.00000000
Si       1.76730212       2.81678538       0.80807198       0.00000000
Si       2.07671438      -2.00857331       1.95419468       0.00000000
Si       0.85638160       1.92665090       2.79435658       0.00000000
Si       1.00978453      -3.34404381       0.25934015       0.00000000
Si       2.35356293      -2.33895080      -1.44372615       0.00000000
