10
Lattice="16.2900001489832 0.0 0.0 0.0 16.2900001489832 0.0 0.0 0.0 29.11971093458229" Properties=species:S:1:pos:R:3:initial_magmoms:R:1 pbc="T T T"
Si      -1.09827181      -1.45147159       1.48472670       0.00000000
Si       1.31375593      -1.32251995      -1.48137793       0.00000000
Si      -1.49973235       1.42229620      -1.18514312       0.00000000
Si       1.60238215       1.07862607       1.41151975       0.00000000
H        0.09052353      -1.54715905       2.44687107       0.00000000
Si       2.80049538       2.36900585      -0.18392009       0.00000000
Si      -2.66112302       2.50330061       0.73498150       0.00000000
Si      -0.10358811       2.67286322      -2.70152294       0.00000000
Si      -0.12300579      -2.69700500      -2.73102121       0.00000000
Si      -2.70115423       0.05888835      -2.75883053       0.00000000
