10
Lattice="16.2900001489832 0.0 0.0 0.0 16.2900001489832 0.0 0.0 0.0 29.11971093458229" Properties=species:S:1:pos:R:3:initial_magmoms:R:1 pbc="T T T"
Si       1.52169778       1.20513421       1.30188404       0.00000000
Si       1.35913987      -1.30893409      -1.41090823       0.00000000
Si      -1.32424669       1.44041068      -1.32503421       0.00000000
Si      -1.30326517      -1.41602455       1.38962173       0.00000000
H        0.77128264       1.82402390       2.44154216       0.00000000
H       -1.96942844       2.59349834      -0.09379459       0.00000000
Si       2.74147671      -0.34748199       2.52566901       0.00000000
H        1.61007103      -1.09853245       3.25899069       0.00000000
Si      -2.71524980      -2.69413796      -0.03331295       0.00000000
Si      -0.04385268      -2.60198543      -2.81937041       0.00000000
