10
Lattice="16.2900001489832 0.0 0.0 0.0 16.2900001489832 0.0 0.0 0.0 29.11971093458229" Properties=species:S:1:pos:R:3:initial_magmoms:R:1 pbc="T T T"
Si      -1.59210659       0.20131182       1.68509943       0.00000000
Si       2.23669847       0.20914731       0.61343583       0.00000000
Si      -0.78592572       0.83530234      -2.02891586       0.00000000
Si      -0.15823292      -1.41892417      -2.35409567       0.00000000
Si       2.18026991      -2.19537074       0.54442212       0.00000000
Si      -3.08358300      -1.18768762       0.43030197       0.00000000
Si      -2.01056069      -2.51475248      -1.27972394       0.00000000
Si       2.16999092       2.05925150       2.05244459       0.00000000
Si       1.81486892      -2.59568120      -1.79426923       0.00000000
Si      -1.82985572       2.57256569       1.86211816       0.00000000
