10
Lattice="16.2900001489832 0.0 0.0 0.0 16.2900001489832 0.0 0.0 0.0 29.11971093458229" Properties=species:S:1:pos:R:3:initial_magmoms:R:1 pbc="T T T"
Si      -1.34763913      -1.43451370      -1.31552953       0.00000000
Si      -1.36790389       1.29119428       1.46633469       0.00000000
Si       1.35089713      -1.42394149       1.36729273       0.00000000
Si       1.39764943       1.36298431      -1.39048367       0.00000000
Si       2.64640826      -0.19777689      -2.65413352       0.00000000
Si       2.71810055       2.72052776      -0.00208788       0.00000000
Si      -2.72338503      -2.72980655       0.07753705       0.00000000
Si       2.73412991      -0.08395866       2.75255232       0.00000000
Si      -0.04173498       2.64026693       2.88466845       0.00000000
Si      -0.01773981      -2.88048253      -2.66546109       0.00000000
