10
Lattice="16.2900001489832 0.0 0.0 0.0 16.2900001489832 0.0 0.0 0.0 29.11971093458229" Properties=species:S:1:pos:R:3:initial_magmoms:R:1 pbc="T T T"
Si      -1.31512429       1.93238498      -0.19859643       0.00000000
Si       1.00640435      -0.21489768       2.11325877       0.00000000
Si       1.57072906      -0.01369989      -1.77522494       0.00000000
Si      -1.45068967      -1.91889686      -0.19032643       0.00000000
Si       1.99928801      -2.32217210      -1.77615677       0.00000000
Si      -0.68957200      -1.15639453       3.44994902       0.00000000
Si      -0.01472616      -3.55066617      -1.21644680       0.00000000
Si      -3.24136794      -1.03747753      -1.61107713       0.00000000
Si      -3.10953297       1.39201309      -1.69386447       0.00000000
Si      -1.61947036      -2.80943859       2.05127980       0.00000000
