10
Lattice="16.2900001489832 0.0 0.0 0.0 16.2900001489832 0.0 0.0 0.0 29.11971093458229" Properties=species:S:1:pos:R:3:initial_magmoms:R:1 pbc="T T T"
Si      -0.33557400       0.97285510       2.06907194       0.00000000
Si      -1.63100368      -1.54250663      -0.70691010       0.00000000
Si      -0.04556313       1.57569913      -1.76817797       0.00000000
Si       2.38998086      -0.66357316       0.61902682       0.00000000
Si       2.22747328       0.94156201      -1.39570775       0.00000000
Si      -0.83715940      -1.23022081       2.80798461       0.00000000
Si      -1.04545963      -1.52432373      -2.99874783       0.00000000
Si      -3.56838969      -0.53682066       0.23380216       0.00000000
Si       2.14633784      -3.01018400       0.86334119       0.00000000
Si      -1.45370332       0.70349995      -3.43964938       0.00000000
