10
Lattice="16.2900001489832 0.0 0.0 0.0 16.2900001489832 0.0 0.0 0.0 29.11971093458229" Properties=species:S:1:pos:R:3:initial_magmoms:R:1 pbc="T T T"
Si       0.06670755      -1.85010419      -1.43900876       0.00000000
Si      -0.78428206      -1.18099243       1.96945341       0.00000000
Si      -1.83783782       1.41848434      -0.72010133       0.00000000
Si       2.16818273       0.58632598      -0.95256398       0.00000000
Si       1.84774214      -0.85706578      -2.84814069       0.00000000
Si      -2.16999092      -2.05925150      -2.05244459       0.00000000
H        2.00471258       0.71910577       2.97865523       0.00000000
Si      -1.24419763       0.59699593       3.42573015       0.00000000
Si      -1.65995102       3.50456710       0.39730934       0.00000000
Si      -1.02991897       2.92218168       2.58137502       0.00000000
