10
Lattice="16.2900001489832 0.0 0.0 0.0 16.2900001489832 0.0 0.0 0.0 29.11971093458229" Properties=species:S:1:pos:R:3:initial_magmoms:R:1 pbc="T T T"
Si      -0.63003205       0.58238542      -2.18406568       0.00000000
Si      -2.02658027      -0.86739364       0.82100113       0.00000000
Si       1.27777132       1.50296103       1.30453393       0.00000000
Si      -0.21427866      -2.32518575       0.84435514       0.00000000
H       -1.55133418       2.94440124      -0.08945575       0.00000000
Si      -0.80791885      -1.50369733      -3.30147635       0.00000000
Si       2.70475904       0.12606831       2.59709966       0.00000000
H        3.03463155      -2.20307591       0.39728022       0.00000000
Si      -2.80625389       0.28557999       2.70691009       0.00000000
Si       2.34613469       3.13178511      -0.10020093       0.00000000
