10
Lattice="16.2900001489832 0.0 0.0 0.0 16.2900001489832 0.0 0.0 0.0 29.11971093458229" Properties=species:S:1:pos:R:3:initial_magmoms:R:1 pbc="T T T"
Si       1.33648700       1.29976282      -1.42444890       0.00000000
Si       1.21822160      -1.41970609       1.41836288       0.00000000
Si      -1.35992684       1.33618726       1.39055356       0.00000000
Si      -1.44983608      -1.43786944      -1.18744357       0.00000000
Si      -0.71340752      -2.15086646       2.67831453       0.00000000
Si      -2.49221690      -0.37054863       2.53985031       0.00000000
Si      -0.03142993      -2.80671816      -2.46425554       0.00000000
Si       2.63015736       2.65707821      -0.00841560       0.00000000
Si       2.65498332      -0.04522104       2.66800616       0.00000000
Si      -2.70043568       2.64227060      -0.05567689       0.00000000
