10
Lattice="16.2900001489832 0.0 0.0 0.0 16.2900001489832 0.0 0.0 0.0 29.11971093458229" Properties=species:S:1:pos:R:3:initial_magmoms:R:1 pbc="T T T"
Si       0.47765538      -0.21989871       2.28662530       0.00000000
Si      -0.82012657      -1.97970743      -1.07501237       0.00000000
Si       1.93162912       0.73116037      -1.25995165       0.00000000
Si      -1.77880937       1.78031783      -0.13846423       0.00000000
Si      -2.15062863      -0.72591499      -2.57683234       0.00000000
Si       0.71340752       2.15086646      -2.67831453       0.00000000
Si       0.95636310       1.97669378       2.95579626       0.00000000
Si      -0.64651932       3.48705372      -1.28776098       0.00000000
Si      -3.52320775       0.74547928      -1.36160856       0.00000000
Si      -1.45090796      -0.90021799       3.49314228       0.00000000
