10
Lattice="16.2900001489832 0.0 0.0 0.0 16.2900001489832 0.0 0.0 0.0 29.11971093458229" Properties=species:S:1:pos:R:3:initial_magmoms:R:1 pbc="T T T"
Si       0.73638946       0.10383246       2.18619142       0.00000000
Si       0.50158539       2.20307591      -0.73891266       0.00000000
Si      -2.36289710      -0.06823881      -0.32858682       0.00000000
Si       0.97441894      -2.13213296      -0.80580064       0.00000000
Si       0.83715940       1.23022081      -2.80798461       0.00000000
H        2.57691512      -1.70149996       0.79930695       0.00000000
Si      -0.96231547      -1.29907050       2.94077049       0.00000000
Si      -0.75135997      -2.36177309      -2.34367081       0.00000000
Si      -2.39570516      -2.36094230      -0.59392562       0.00000000
Si       3.04711881      -0.52120670       1.66235694       0.00000000
