10
Lattice="16.2900001489832 0.0 0.0 0.0 16.2900001489832 0.0 0.0 0.0 29.11971093458229" Properties=species:S:1:pos:R:3:initial_magmoms:R:1 pbc="T T T"
Si       1.99070318      -0.18037917       1.22442561       0.00000000
Si      -0.42381693      -2.26118234      -0.46911854       0.00000000
Si       0.91092052       0.89013448      -1.98628460       0.00000000
Si      -2.07992351       0.71695549       0.95780553       0.00000000
Si      -0.85638160      -1.92665090      -2.79435658       0.00000000
Si       2.72451881      -0.57148579      -2.35866747       0.00000000
Si       3.66415860      -1.20871801      -0.29576890       0.00000000
Si      -0.50714028       0.41474340      -3.81890449       0.00000000
Si      -3.47201805      -1.29925783       1.15730467       0.00000000
Si      -2.04859784      -3.15477030       1.04126262       0.00000000
