10
Lattice="16.2900001489832 0.0 0.0 0.0 16.2900001489832 0.0 0.0 0.0 29.11971093458229" Properties=species:S:1:pos:R:3:initial_magmoms:R:1 pbc="T T T"
Si      -0.43969968       0.33950315      -2.24504235       0.00000000
Si       1.56792392      -1.75004775       0.16548732       0.00000000
Si      -2.27320436      -0.26744434       0.66433709       0.00000000
Si       0.59867380       2.08851160       1.02935266       0.00000000
Si       3.25845615      -0.33787904       1.13261116       0.00000000
Si      -2.90978499       1.99906321       0.30697999       0.00000000
Si       0.00956223      -3.36448450       1.12276869       0.00000000
Si      -2.19501236       2.01145990      -2.03485628       0.00000000
H        0.75846241      -1.38221792       3.25037125       0.00000000
Si       2.47786541       1.54799310       2.37942982       0.00000000
