10
Lattice="10.86 0.0 0.0 0.0 10.86 0.0 0.0 0.0 10.86" Properties=species:S:1:pos:R:3:initial_magmoms:R:1 pbc="T T T"
Si      -1.33230480       1.44094824      -1.33349940       0.00000000
Si       2.70183768       0.14249406       2.58951270       0.00000000
Si      -0.03885708      -2.65288080       2.71662900       0.00000000
Si      -0.06757092      -2.67914028      -2.72895510       0.00000000
Si      -2.74894836      -2.67988962      -0.18579288       0.00000000
Si      -2.77467570       0.02318610       2.65967916       0.00000000
Si       2.63458170       2.80447554      -0.07640010       0.00000000
Si       0.05852454       2.78359176       2.67495918       0.00000000
Si       2.81947320      -2.63907774      -0.01479132       0.00000000
Si      -2.67315642       2.80167366       0.01497594       0.00000000
