10
Lattice="16.28999089631971 0.0 0.0 0.0 16.28999089631971 0.0 0.0 0.0 34.185847837958455" Properties=species:S:1:pos:R:3:initial_magmoms:R:1 pbc="T T T"
Si      -1.39600902       1.27712949      -1.36372551       0.00000000
Si       1.33156089       1.35723393       1.35268348       0.00000000
Si      -1.38559808      -1.35479273       1.34947000       0.00000000
Si       1.28565567      -1.41068372      -1.39577476       0.00000000
Si      -0.56224935      -2.29598006      -2.58226296       0.00000000
Si      -2.45993661      -0.51540161      -2.55872599       0.00000000
Si       2.68081272       2.71095411      -0.04108457       0.00000000
Si       2.68605810      -0.00026294       2.71129820       0.00000000
Si       2.67533928      -2.73605441      -0.01248126       0.00000000
Si      -0.02736720       2.71538499       2.71034100       0.00000000
