10
Lattice="16.28999089631971 0.0 0.0 0.0 16.28999089631971 0.0 0.0 0.0 34.185847837958455" Properties=species:S:1:pos:R:3:initial_magmoms:R:1 pbc="T T T"
Si      -0.20461869      -0.18666711      -2.35079114       0.00000000
Si       0.05631453      -2.36346723       0.45716760       0.00000000
Si       2.40991002       0.37522386       0.30350213       0.00000000
Si      -1.28109610       2.05856471       0.49644716       0.00000000
Si      -2.17292799      -1.51554015      -0.03169030       0.00000000
Si      -0.21787875      -1.77937299       2.71736486       0.00000000
Si      -2.11556601       0.00120546       2.74090183       0.00000000
Si       2.33846208       2.34726587      -1.02817413       0.00000000
Si       0.63506565       3.60141668       0.08208027       0.00000000
Si       1.64576241       1.25681327      -3.03686730       0.00000000
