10
Lattice="16.28999089631971 0.0 0.0 0.0 16.28999089631971 0.0 0.0 0.0 34.185847837958455" Properties=species:S:1:pos:R:3:initial_magmoms:R:1 pbc="T T T"
Si      -0.27419328       0.58409424       2.26019726       0.00000000
Si      -0.05631453       2.36346723      -0.45716760       0.00000000
Si      -2.22924252       0.84792708      -0.48885790       0.00000000
Si       1.88558379      -0.52748649      -1.67531260       0.00000000
Si       1.71246996      -2.61563643       0.30726257       0.00000000
Si       0.19591983      -0.19404648      -3.29497060       0.00000000
Si      -0.26093322       2.17680012      -2.80795874       0.00000000
Si       2.35359549       2.73869109      -0.15366547       0.00000000
Si      -3.01733873      -0.52320222      -2.22177368       0.00000000
Si      -1.21119082      -1.34534223       3.33033387       0.00000000
