10
Lattice="16.28999089631971 0.0 0.0 0.0 16.28999089631971 0.0 0.0 0.0 34.185847837958455" Properties=species:S:1:pos:R:3:initial_magmoms:R:1 pbc="T T T"
Si      -1.34925183      -1.35372018       1.39376805       0.00000000
Si       1.36526490       1.36402686       1.39380224       0.00000000
Si       1.32453990      -1.46302771      -1.44054799       0.00000000
Si      -1.50299685       1.30561092      -1.45455736       0.00000000
Si      -2.68081272      -2.71095411       0.04108457       0.00000000
Si       2.70353727       2.70449838       0.03509863       0.00000000
Si       2.70658350      -2.70481508       0.04227082       0.00000000
Si      -2.70733284       2.71422351       0.02446682       0.00000000
Si      -2.70817992       0.00443088       2.75142557       0.00000000
Si       0.00524538      -2.71121705       2.75238278       0.00000000
