10
Lattice="16.28999089631971 0.0 0.0 0.0 16.28999089631971 0.0 0.0 0.0 34.185847837958455" Properties=species:S:1:pos:R:3:initial_magmoms:R:1 pbc="T T T"
Si       1.41755580      -1.31128961      -1.38319436       0.00000000
Si      -1.31877324       1.37987703      -1.41751697       0.00000000
Si       0.86270211       1.92671604       1.22173451       0.00000000
Si      -0.52476606      -1.87553775       1.48746126       0.00000000
Si       0.16979067      -0.58287249       3.48029218       0.00000000
Si      -2.54096307      -2.68217198       0.22446440       0.00000000
Si       0.04336398      -2.66044112      -2.76201293       0.00000000
Si      -0.97378362       3.57902703       0.99925289       0.00000000
Si      -2.67043599       0.05481585      -2.76560245       0.00000000
Si      -2.77702146       2.65769721      -0.15520384       0.00000000
