10
Lattice="16.28999089631971 0.0 0.0 0.0 16.28999089631971 0.0 0.0 0.0 34.185847837958455" Properties=species:S:1:pos:R:3:initial_magmoms:R:1 pbc="T T T"
Si       0.39822534       2.39552595       0.12221447       0.00000000
Si      -0.69455673      -1.29266526      -1.99283093       0.00000000
Si      -1.43897715      -0.36937575       2.04209276       0.00000000
Si       2.74253553      -0.44974898      -0.07883261       0.00000000
Si       0.69291144       2.50958853      -2.25855767       0.00000000
Si      -1.81596033      -2.60626058       1.51696366       0.00000000
Si      -0.16979067       0.58287249      -3.48029218       0.00000000
Si       0.81914265      -3.28858352      -1.99286511       0.00000000
Si       2.44229454       2.92486950       1.36138378       0.00000000
Si      -1.53891630       3.73101273       0.93416300       0.00000000
