10
Lattice="16.28999089631971 0.0 0.0 0.0 16.28999089631971 0.0 0.0 0.0 34.185847837958455" Properties=species:S:1:pos:R:3:initial_magmoms:R:1 pbc="T T T"
Si      -1.25468186      -0.74186289      -1.82173066       0.00000000
Si       0.69269967       2.22576786       0.21779816       0.00000000
Si       2.17197828      -0.86703525      -0.33779055       0.00000000
Si      -1.20005824      -0.26191062       2.17073418       0.00000000
Si      -2.67275636       1.61080407       1.22734099       0.00000000
Si       3.11378463      -0.22555134       1.75431613       0.00000000
Si       2.17973232       2.01298788       2.08253464       0.00000000
Si      -2.54632967       1.12814766      -2.34446675       0.00000000
Si       1.79499510      -3.10392008      -0.86291965       0.00000000
Si      -2.23413182      -2.73921956      -1.11394647       0.00000000
