10
Lattice="16.28999089631971 0.0 0.0 0.0 16.28999089631971 0.0 0.0 0.0 34.185847837958455" Properties=species:S:1:pos:R:3:initial_magmoms:R:1 pbc="T T T"
Si       1.21350726      -1.47733684      -1.40004799       0.00000000
Si       0.95247630      -0.33397758       2.16382863       0.00000000
Si      -2.34670482      -0.42156891      -0.17557861       0.00000000
Si       1.00137888       2.12604048      -0.60163707       0.00000000
Si       3.16959417       1.23999480      -0.08676373       0.00000000
Si      -0.50391486       1.28739870       3.20448061       0.00000000
Si       3.41133777      -1.07616627      -0.64296779       0.00000000
Si      -2.39630787      -2.00791843      -1.88357290       0.00000000
Si       0.61496379      -0.95552253      -3.67682673       0.00000000
Si       3.08752515       0.71772111       2.18734851       0.00000000
