10
Lattice="16.28999089631971 0.0 0.0 0.0 16.28999089631971 0.0 0.0 0.0 34.185847837958455" Properties=species:S:1:pos:R:3:initial_magmoms:R:1 pbc="T T T"
Si       2.25556227       0.38966494       0.30839071       0.00000000
Si      -1.03107392      -0.61462400       2.02390588       0.00000000
Si      -0.88478809      -1.99047740      -0.95187128       0.00000000
Si      -1.35411277       1.76020455      -1.07538482       0.00000000
Si      -2.71429586      -1.29492698       0.44656998       0.00000000
Si      -3.34686914       0.46048246      -0.93135976       0.00000000
Si      -1.20273794       3.28903734       0.89960109       0.00000000
Si       2.30516532       1.97601447       2.01638499       0.00000000
Si       0.02541240      -3.73665137       0.34657632       0.00000000
Si       2.95973010       1.79656383      -1.49180286       0.00000000
