10
Lattice="16.28999089631971 0.0 0.0 0.0 16.28999089631971 0.0 0.0 0.0 34.185847837958455" Properties=species:S:1:pos:R:3:initial_magmoms:R:1 pbc="T T T"
Si      -1.80323784      -0.92132982      -1.15445673       0.00000000
Si       0.95764023       1.83418884      -1.09716121       0.00000000
Si      -1.69523514       0.59885298       1.62037591       0.00000000
Si       1.83648573      -1.65231099       0.22248162       0.00000000
Si      -0.34498962      -2.19915000      -2.41676986       0.00000000
Si       2.39094846       0.54846801      -2.41615452       0.00000000
Si      -0.39534201      -0.43088679       3.41520229       0.00000000
Si       1.54179963      -1.76637357       2.60325377       0.00000000
Si       0.27852642       3.40628787       1.28217513       0.00000000
Si       0.97378362      -3.57902703      -0.99925289       0.00000000
