10
Lattice="16.28999089631971 0.0 0.0 0.0 16.28999089631971 0.0 0.0 0.0 34.185847837958455" Properties=species:S:1:pos:R:3:initial_magmoms:R:1 pbc="T T T"
Si      -1.69777638       1.54984689      -0.25010380       0.00000000
Si       0.22167432      -0.92263302      -2.14058224       0.00000000
Si      -0.47172582      -1.38469887       1.85711304       0.00000000
Si       2.09538270       1.15768143       0.20152569       0.00000000
Si      -3.12311880       0.25013295      -1.62482007       0.00000000
Si       1.70277741      -1.86245199       2.54708639       0.00000000
Si      -2.33522037       1.87483239       2.00958200       0.00000000
Si      -1.42074864       0.14714757       3.32611392       0.00000000
Si       3.13465212      -0.07524351       1.89516191       0.00000000
Si       2.33251623      -2.74758543      -1.01914907       0.00000000
