10
Lattice="16.28999089631971 0.0 0.0 0.0 16.28999089631971 0.0 0.0 0.0 34.185847837958455" Properties=species:S:1:pos:R:3:initial_magmoms:R:1 pbc="T T T"
Si       0.94902282      -1.53184644      -1.46900089       0.00000000
Si       1.38785913       1.08672219       1.55408951       0.00000000
Si      -0.91447173       1.72768482      -1.31653192       0.00000000
Si      -1.59966171      -0.67285845       1.63237515       0.00000000
Si      -0.08060292       2.84809473       2.03152933       0.00000000
Si      -2.02230576       1.55716110       2.40254854       0.00000000
Si      -0.59961861      -3.32180793      -1.27120146       0.00000000
Si       1.42074864      -0.14714757      -3.32611392       0.00000000
Si       1.98360072      -0.63430002       2.96384629       0.00000000
Si       0.03075552       3.61848141      -0.28377688       0.00000000
