10
Lattice="16.28999089631971 0.0 0.0 0.0 16.28999089631971 0.0 0.0 0.0 34.185847837958455" Properties=species:S:1:pos:R:3:initial_magmoms:R:1 pbc="T T T"
Si       1.58416992       0.73712250       1.51583553       0.00000000
Si      -0.58777578       1.91299986      -1.26316778       0.00000000
Si      -1.81265346      -1.17545382       1.02858436       0.00000000
Si       0.67482954      -1.39062843      -1.86842856       0.00000000
Si      -2.59416621       0.84960495      -1.88309429       0.00000000
Si      -2.71411274      -1.52352225      -1.17213082       0.00000000
Si       2.99548665       1.95155829       0.06830336       0.00000000
Si      -0.90301986      -3.10679622      -1.56625968       0.00000000
Si       2.90297574      -1.98394281      -1.45101912       0.00000000
Si      -2.74320831       0.19629450       2.75459460       0.00000000
