10
Lattice="16.28999089631971 0.0 0.0 0.0 16.28999089631971 0.0 0.0 0.0 34.185847837958455" Properties=species:S:1:pos:R:3:initial_magmoms:R:1 pbc="T T T"
Si      -0.73114407      -1.90602774       1.18902342       0.00000000
Si       0.35324865       0.04455315      -2.37535031       0.00000000
Si      -1.60386453       1.79789472      -0.14410714       0.00000000
Si       1.90179234       0.85574628       1.25580893       0.00000000
Si      -1.96709895      -0.44955513       2.64996670       0.00000000
Si       0.74495799       2.29263831       2.66363421       0.00000000
Si       2.32916049       1.34824185      -2.49093272       0.00000000
Si      -3.35678256       0.87581556       1.26667320       0.00000000
Si       2.74413195       2.57742728      -0.22023907       0.00000000
Si      -0.63708561       3.53442568       1.18081540       0.00000000
