10
Lattice="16.28999089631971 0.0 0.0 0.0 16.28999089631971 0.0 0.0 0.0 34.185847837958455" Properties=species:S:1:pos:R:3:initial_magmoms:R:1 pbc="T T T"
Si      -2.31296823      -0.25117551       0.24309570       0.00000000
Si       0.94522725       1.89079659       1.03275504       0.00000000
Si       0.91447173      -1.72768482       1.31653192       0.00000000
Si       0.63744399      -0.32498550      -2.25968580       0.00000000
Si       2.33522037      -1.87483239      -2.00958200       0.00000000
Si       0.83386881       1.12040991       3.34806125       0.00000000
Si      -3.22316872       1.49499846      -1.05535190       0.00000000
Si       2.30233086      -0.64096263       2.87062143       0.00000000
Si       1.86349455      -3.25953126      -0.15246897       0.00000000
Si      -2.91683038       0.59657238       2.39868554       0.00000000
