10
Lattice="16.28999089631971 0.0 0.0 0.0 16.28999089631971 0.0 0.0 0.0 34.185847837958455" Properties=species:S:1:pos:R:3:initial_magmoms:R:1 pbc="T T T"
Si      -0.94522725      -1.89079659      -1.03275504       0.00000000
Si       2.34250200       0.15742656      -0.26230816       0.00000000
Si      -1.02804561       1.98434421      -0.82784495       0.00000000
Si      -0.11135844      -0.77038668       2.31530621       0.00000000
Si       1.35710361      -2.53175922       1.83786639       0.00000000
Si       2.58176952       2.51492580      -0.34432005       0.00000000
Si      -0.03075552      -3.61848141       0.28377688       0.00000000
Si       3.27953538      -1.29326310       1.38883503       0.00000000
Si      -0.97844256       3.57069374       0.88014933       0.00000000
Si      -3.28360788       1.59467927      -1.13623566       0.00000000
