10
Lattice="16.28999089631971 0.0 0.0 0.0 16.28999089631971 0.0 0.0 0.0 34.185847837958455" Properties=species:S:1:pos:R:3:initial_magmoms:R:1 pbc="T T T"
Si       1.09659393      -1.68125506      -1.22200800       0.00000000
Si      -0.49187655      -1.26655564       1.93122800       0.00000000
Si      -2.06047323       0.85590918      -0.83068238       0.00000000
Si       1.59363441       1.75014873       0.58051021       0.00000000
Si       2.02424427      -0.18608067      -2.77062777       0.00000000
Si      -0.73749717      -2.73057232      -2.28091523       0.00000000
Si       0.37278036       0.22652874       3.68024532       0.00000000
Si      -2.37702051       2.91462309       0.17321979       0.00000000
Si       2.40357321       0.99694800       2.74078351       0.00000000
Si       2.42532036      -3.06040949       0.26203467       0.00000000
