10
Lattice="16.28999089631971 0.0 0.0 0.0 16.28999089631971 0.0 0.0 0.0 34.185847837958455" Properties=species:S:1:pos:R:3:initial_magmoms:R:1 pbc="T T T"
Si      -1.35784318      -1.34806266       1.37066866       0.00000000
Si       1.35982404       1.35689184       1.37063447       0.00000000
Si      -1.25063380       1.36679616      -1.47633034       0.00000000
Si       1.20433599      -1.40861259      -1.47902418       0.00000000
Si       2.26209456       0.53989947      -2.81861930       0.00000000
Si      -2.44749431      -0.53517537      -2.71059196       0.00000000
Si       0.48801582       2.39572143      -2.79899661       0.00000000
Si      -2.69538592       2.69904123      -0.00319638       0.00000000
Si      -0.68861088      -2.35015830      -2.93574008       0.00000000
Si       2.70733284      -2.71422351      -0.02446682       0.00000000
