10
Lattice="16.28999089631971 0.0 0.0 0.0 16.28999089631971 0.0 0.0 0.0 34.185847837958455" Properties=species:S:1:pos:R:3:initial_magmoms:R:1 pbc="T T T"
Si       1.17240759      -1.49644827      -1.37875020       0.00000000
Si      -1.62782712      -1.63929528       0.59138131       0.00000000
Si      -1.44316368       1.25165844      -1.50585325       0.00000000
Si       1.72815723       0.57661713       2.64776377       0.00000000
Si      -3.15159372      -0.34168275       1.86665089       0.00000000
Si      -0.60023763      -2.90818854       2.31739155       0.00000000
Si       2.46798387      -0.02187747      -2.91796886       0.00000000
Si      -0.34933905      -2.66576076      -2.86846772       0.00000000
Si      -2.97543366       1.99122444       1.64386160       0.00000000
Si      -2.69443116       2.87634159      -0.45327041       0.00000000
