10
Lattice="16.28999089631971 0.0 0.0 0.0 16.28999089631971 0.0 0.0 0.0 34.185847837958455" Properties=species:S:1:pos:R:3:initial_magmoms:R:1 pbc="T T T"
Si       0.74082033       1.90798254       1.12314247       0.00000000
Si      -1.14637617      -1.47763332       1.42110649       0.00000000
Si       1.37798739      -1.28951640      -1.42842226       0.00000000
Si      -1.35008262       1.41309234      -1.43867802       0.00000000
Si      -2.39764365       0.14704983       2.47368933       0.00000000
Si      -2.69578323      -2.58001020      -0.01979362       0.00000000
Si       2.67260256       2.74595643       0.01692200       0.00000000
Si       0.00679293      -2.64482811      -2.80652293       0.00000000
Si      -2.71945260       2.74152555      -0.04451000       0.00000000
Si       2.76477138      -2.75116923       0.00899088       0.00000000
