10
Lattice="16.28999089631971 0.0 0.0 0.0 16.28999089631971 0.0 0.0 0.0 34.185847837958455" Properties=species:S:1:pos:R:3:initial_magmoms:R:1 pbc="T T T"
Si      -2.20403700       0.59145732      -0.34049123       0.00000000
Si       0.31654728      -2.05871391      -1.00390217       0.00000000
Si       0.06551838       0.18595035       2.38566072       0.00000000
Si       1.52917488       1.31145903      -1.29516575       0.00000000
Si       3.16553796       1.05526620       0.34753352       0.00000000
Si      -2.01893373       2.45876373       1.06800067       0.00000000
Si       2.06482266       1.45974690       2.39280557       0.00000000
Si      -3.27489273      -1.48903632       0.01322993       0.00000000
Si       0.39861630      -1.53644022      -3.27801441       0.00000000
Si      -2.27890584       1.33301070      -2.51867793       0.00000000
