10
Lattice="16.28999089631971 0.0 0.0 0.0 16.28999089631971 0.0 0.0 0.0 34.185847837958455" Properties=species:S:1:pos:R:3:initial_magmoms:R:1 pbc="T T T"
Si      -0.63003204       1.70502543      -1.52927057       0.00000000
Si       2.05425045      -1.16901927      -0.40790576       0.00000000
Si      -1.89172512      -1.62818550      -0.38479612       0.00000000
Si       0.15410340       1.39817070       2.11552400       0.00000000
Si      -1.66684167      -2.09251566       2.07682560       0.00000000
Si      -0.78828939      -0.23154606       3.50535183       0.00000000
Si       1.36927224       2.97882198      -1.52212573       0.00000000
Si       1.18959354      -2.66210366      -2.15692309       0.00000000
Si      -2.78694207       2.69459406      -0.83981001       0.00000000
Si      -1.05541281      -3.44252823      -1.84566077       0.00000000
