10
Lattice="16.28999089631971 0.0 0.0 0.0 16.28999089631971 0.0 0.0 0.0 34.185847837958455" Properties=species:S:1:pos:R:3:initial_magmoms:R:1 pbc="T T T"
Si      -0.28100250      -0.88511715       2.09713201       0.00000000
Si       1.25126748      -1.62468315      -1.05258284       0.00000000
Si      -1.64926476       1.12498740      -1.26275755       0.00000000
Si      -2.26903410       0.37602207       1.52301456       0.00000000
Si       2.39764365      -0.14704983      -2.47368933       0.00000000
Si      -0.32180895       2.59447572      -2.51819933       0.00000000
Si      -0.29813958      -2.72706003      -2.49348295       0.00000000
Si      -1.46108268       2.33970012       2.53785620       0.00000000
Si       0.64975923       0.51474771       3.65928938       0.00000000
Si       3.13846398       1.76093271      -1.35054686       0.00000000
