10
Lattice="16.28999089631971 0.0 0.0 0.0 16.28999089631971 0.0 0.0 0.0 34.185847837958455" Properties=species:S:1:pos:R:3:initial_magmoms:R:1 pbc="T T T"
Si      -1.64862945      -0.88438410      -1.46821461       0.00000000
Si       1.00831842       1.68142122      -1.44674589       0.00000000
Si       1.81164348      -1.71792711      -0.30056214       0.00000000
Si      -1.21323033       0.28284327       2.25883116       0.00000000
Si      -0.27925947      -2.21281731      -2.86238264       0.00000000
Si      -2.97608526      -2.35387242      -0.21277284       0.00000000
Si       2.44840329       0.50710770      -2.86990353       0.00000000
Si       2.49712668       2.88634365      -0.05890225       0.00000000
Si      -1.32682050      -3.47885982       1.04998472       0.00000000
Si       0.36813771       0.67323312       3.93000726       0.00000000
