10
Lattice="16.28999089631971 0.0 0.0 0.0 16.28999089631971 0.0 0.0 0.0 34.185847837958455" Properties=species:S:1:pos:R:3:initial_magmoms:R:1 pbc="T T T"
Si       1.76901255      -0.06428034       1.43628501       0.00000000
Si      -0.66171609       2.24512038      -0.01449481       0.00000000
Si       0.91955421      -0.23618871      -2.14348804       0.00000000
Si      -2.00171520      -1.32923142       0.38462519       0.00000000
Si      -2.16917640       1.48051665      -1.68273093       0.00000000
Si      -1.19039175      -0.28160523      -3.13132285       0.00000000
Si       1.54639341      -2.47653612      -1.97854124       0.00000000
Si       2.08204119      -2.32824825       1.70943009       0.00000000
Si      -3.58049313       0.26608086      -0.23519876       0.00000000
Si      -1.81280007       2.36457495       2.14711175       0.00000000
