10
Lattice="16.28999089631971 0.0 0.0 0.0 16.28999089631971 0.0 0.0 0.0 34.185847837958455" Properties=species:S:1:pos:R:3:initial_magmoms:R:1 pbc="T T T"
Si      -2.10994596      -0.04541652      -0.98783481       0.00000000
Si       0.62683920      -2.24034741       0.16494681       0.00000000
Si      -0.91955421       0.23618871       2.14348804       0.00000000
Si       1.29111282       1.88410140      -0.81929849       0.00000000
Si      -3.08873061       1.71670536       0.46075711       0.00000000
Si      -1.58127030       2.48130909       2.12899324       0.00000000
Si       0.84945834       0.17190837       3.57977306       0.00000000
Si       2.61881298       1.21863861       2.45892104       0.00000000
Si       3.00319182       0.92471814      -2.13945411       0.00000000
Si       2.26320228      -2.49654024       1.80764609       0.00000000
