10
Lattice="16.28999089631971 0.0 0.0 0.0 16.28999089631971 0.0 0.0 0.0 34.185847837958455" Properties=species:S:1:pos:R:3:initial_magmoms:R:1 pbc="T T T"
Si       1.01550231      -1.66856841      -1.25656991       0.00000000
Si      -1.73869686       1.09341642      -1.21089759       0.00000000
Si       1.63400103       1.80316358       0.03815143       0.00000000
Si      -0.18120996      -1.59343893       2.16276887       0.00000000
Si      -1.72670742       0.29847582       2.34562907       0.00000000
Si       2.15252802      -0.09042579      -2.72792962       0.00000000
Si       1.58806323       1.94921972       2.40183064       0.00000000
Si      -2.96536644       1.66357620       0.73202197       0.00000000
Si      -0.71425134       2.47168889       2.62297901       0.00000000
Si      -0.46335276       2.71411667      -2.56288026       0.00000000
