10
Lattice="16.28999089631971 0.0 0.0 0.0 16.28999089631971 0.0 0.0 0.0 34.185847837958455" Properties=species:S:1:pos:R:3:initial_magmoms:R:1 pbc="T T T"
Si       1.44008487      -1.17431352      -1.42315764       0.00000000
Si       1.48880826       1.20492243       1.38784364       0.00000000
Si      -1.00831842      -1.68142122       1.44674589       0.00000000
Si      -1.28886480       1.52925633      -1.40726121       0.00000000
Si       0.80332506      -3.39934833       1.14618375       0.00000000
Si      -2.65694787      -2.56580532      -0.02146872       0.00000000
Si       2.73510729      -2.56137444       0.03996328       0.00000000
Si       0.07239276      -2.52454275      -2.78905395       0.00000000
Si      -2.69733078       2.70117522       0.08741326       0.00000000
Si       2.62583397       2.78306505      -0.08351607       0.00000000
