10
Lattice="16.28999089631971 0.0 0.0 0.0 16.28999089631971 0.0 0.0 0.0 34.185847837958455" Properties=species:S:1:pos:R:3:initial_magmoms:R:1 pbc="T T T"
Si       0.84541842       0.73798587       2.09292715       0.00000000
Si       1.98749403      -1.08774846      -0.77147246       0.00000000
Si      -1.72867851      -1.66314384       0.31105720       0.00000000
Si      -0.96023034       1.76852385      -1.42756762       0.00000000
Si       1.14370461      -2.26035153      -2.63723452       0.00000000
Si      -1.90944864       0.53177076      -3.21596706       0.00000000
Si       2.32802019       2.57228874       1.63223840       0.00000000
Si       2.47140477      -2.92581432       0.64098501       0.00000000
Si      -0.85799430       1.92692781       3.28054416       0.00000000
Si      -0.01420488      -0.66819951      -3.96569731       0.00000000
