10
Lattice="16.28999089631971 0.0 0.0 0.0 16.28999089631971 0.0 0.0 0.0 34.185847837958455" Properties=species:S:1:pos:R:3:initial_magmoms:R:1 pbc="T T T"
Si      -1.97591184      -1.30368870       0.11558242       0.00000000
Si      -0.55161198       1.70520040      -1.56909711       0.00000000
Si       1.70341272      -1.18894194      -1.18761702       0.00000000
Si       0.41497146       1.22918543       2.27069365       0.00000000
Si       1.69339437       2.48562498      -1.88035943       0.00000000
Si       3.18601449       0.64536093      -1.64830576       0.00000000
Si      -2.32916049      -1.34824185       2.49093272       0.00000000
Si      -1.38792429       3.51954314      -0.10823245       0.00000000
Si      -0.42736815      -0.49249557       3.74674166       0.00000000
Si       2.72326446      -2.77446393       0.24832614       0.00000000
