10
Lattice="16.28999089631971 0.0 0.0 0.0 16.28999089631971 0.0 0.0 0.0 34.185847837958455" Properties=species:S:1:pos:R:3:initial_magmoms:R:1 pbc="T T T"
Si       1.35623099       1.33246824      -1.35706269       0.00000000
Si       1.35089931      -1.35908696       1.35762333       0.00000000
Si      -1.36203948       1.35597471       1.35803356       0.00000000
Si      -1.38714237      -1.34999695      -1.37786820       0.00000000
Si      -0.08257401       2.54079528      -2.75513816       0.00000000
Si       2.69966255      -0.08193870      -2.71787898       0.00000000
Si       2.71007349      -2.71386091      -0.00468346       0.00000000
Si       2.71068436      -0.00030136       2.71398179       0.00000000
Si      -0.00397476       2.71454442       2.71425528       0.00000000
Si       2.71130827       2.71804677      -0.00010256       0.00000000
