10
Lattice="16.28999089631971 0.0 0.0 0.0 16.28999089631971 0.0 0.0 0.0 34.185847837958455" Properties=species:S:1:pos:R:3:initial_magmoms:R:1 pbc="T T T"
Si       1.43880500      -1.20832704       1.39807547       0.00000000
Si       1.70423115       0.99013878      -1.32622502       0.00000000
Si      -1.26574929       1.51171200       1.38248330       0.00000000
Si      -1.48628331      -1.41379281      -1.58422576       0.00000000
Si       0.17971128       1.59472584      -3.24555634       0.00000000
Si       0.08257401      -2.54079528       2.75513816       0.00000000
Si       0.35189658      -2.86119026      -2.44506008       0.00000000
Si      -2.66968665       2.71740006      -0.08872942       0.00000000
Si      -2.63676456       0.17376543       2.75254003       0.00000000
Si       2.78223656      -2.62273398       0.03725918       0.00000000
