10
Lattice="16.28999089631971 0.0 0.0 0.0 16.28999089631971 0.0 0.0 0.0 34.185847837958455" Properties=species:S:1:pos:R:3:initial_magmoms:R:1 pbc="T T T"
Si       1.58478894      -0.23425020      -1.70341338       0.00000000
Si      -1.22587137       1.98311202       0.40366672       0.00000000
Si       1.45836225       0.24840621       1.86839437       0.00000000
Si      -1.25195166      -2.02416282      -0.14785387       0.00000000
Si      -1.20601386      -2.17021896      -2.51153309       0.00000000
Si      -2.03123268       1.41752322       2.52233582       0.00000000
Si       2.87643674      -2.10426075      -1.18067729       0.00000000
Si      -0.03916116       0.78081228       3.68704831       0.00000000
Si       2.88780553       2.08702593       1.32036074       0.00000000
Si      -3.55426623      -1.50169365       0.07329450       0.00000000
