10
Lattice="16.28999089631971 0.0 0.0 0.0 16.28999089631971 0.0 0.0 0.0 34.185847837958455" Properties=species:S:1:pos:R:3:initial_magmoms:R:1 pbc="T T T"
Si       1.49657859      -1.37302708      -1.09999864       0.00000000
Si       0.37756962       0.23980509       2.27072784       0.00000000
Si      -2.19224304      -0.65133936      -0.58792854       0.00000000
Si       0.51911343       2.33181576      -0.36876295       0.00000000
Si       0.05528826       2.63308302       2.08800438       0.00000000
Si       2.01663684       1.79940969      -2.18741688       0.00000000
Si      -1.47295809       2.96852670      -1.53347543       0.00000000
Si      -3.38333526      -0.51209244       1.38035694       0.00000000
Si       3.48933496      -0.07330500      -1.24402370       0.00000000
Si      -3.01889538       1.15105140      -1.90152048       0.00000000
