10
Lattice="16.28999089631971 0.0 0.0 0.0 16.28999089631971 0.0 0.0 0.0 34.185847837958455" Properties=species:S:1:pos:R:3:initial_magmoms:R:1 pbc="T T T"
Si       1.24716959      -1.74346983       0.85092041       0.00000000
Si      -2.20089303      -0.59756607      -0.53152186       0.00000000
Si       1.06224714       0.61815663      -2.07128749       0.00000000
Si      -0.52924581       1.68513534       1.64044301       0.00000000
Si      -2.52317439       1.79571186      -0.71424532       0.00000000
Si      -0.04803921       2.70904329      -2.20933002       0.00000000
Si      -0.53281332       3.49669737      -0.00553811       0.00000000
Si       1.23391116      -3.28550471      -0.94698270       0.00000000
Si       3.49225739      -1.00475091       1.14686746       0.00000000
Si      -3.12854337      -2.09274046       1.01709791       0.00000000
