10
Lattice="16.28999089631971 0.0 0.0 0.0 16.28999089631971 0.0 0.0 0.0 34.185847837958455" Properties=species:S:1:pos:R:3:initial_magmoms:R:1 pbc="T T T"
Si      -1.39878972      -1.23399845       1.50375907       0.00000000
Si       1.83817989      -1.44739745      -0.86083432       0.00000000
Si       1.48628331       1.41379281       1.58422576       0.00000000
Si      -1.09581201       0.55438128      -2.29951234       0.00000000
Si       0.93498084       1.32480054      -3.23897415       0.00000000
Si       1.66599459       3.00851865      -1.66133058       0.00000000
Si       0.18171495      -2.47699943       2.96149571       0.00000000
Si      -2.50833420       0.23532534       2.97983643       0.00000000
Si      -3.23889183      -2.19514266       0.10252341       0.00000000
Si       0.93993300      -3.33219185      -1.85875396       0.00000000
