10
Lattice="16.28999089631971 0.0 0.0 0.0 16.28999089631971 0.0 0.0 0.0 34.185847837958455" Properties=species:S:1:pos:R:3:initial_magmoms:R:1 pbc="T T T"
Si      -1.35000443      -1.35632169       1.32709535       0.00000000
Si      -1.35847360       1.35477414      -1.35711055       0.00000000
Si       1.35640314      -1.35811359      -1.35639264       0.00000000
Si       1.35182565       1.36414089       1.35635846       0.00000000
Si       2.65494420      -0.07200180       2.66707878       0.00000000
Si      -2.71201526       2.71394658       0.00369207       0.00000000
Si      -0.00045612       2.71391400      -2.71333226       0.00000000
Si       2.71621089       2.71148679       0.00191441       0.00000000
Si      -2.71481918      -0.00135207      -2.71353737       0.00000000
Si       2.71503801      -0.00089595      -2.71377668       0.00000000
