10
Lattice="16.28999089631971 0.0 0.0 0.0 16.28999089631971 0.0 0.0 0.0 34.185847837958455" Properties=species:S:1:pos:R:3:initial_magmoms:R:1 pbc="T T T"
Si       2.03079285       0.77041926      -0.93946181       0.00000000
Si      -2.05425045       1.16901927       0.40790576       0.00000000
Si      -0.86465691      -1.49308438      -1.74901732       0.00000000
Si       1.09581201      -0.55438128       2.29951234       0.00000000
Si       1.22085405       1.52361999      -3.09973511       0.00000000
Si      -0.37278036      -0.22652874      -3.68024532       0.00000000
Si       0.62796321      -3.33334844      -1.51696366       0.00000000
Si       2.76180660       2.45413737       0.63818176       0.00000000
Si       2.93399190      -2.00177873       1.43867802       0.00000000
Si      -3.94597557      -0.45916623       0.02310965       0.00000000
