10
Lattice="16.28999089631971 0.0 0.0 0.0 16.28999089631971 0.0 0.0 0.0 34.185847837958455" Properties=species:S:1:pos:R:3:initial_magmoms:R:1 pbc="T T T"
Si      -0.80536131      -0.56558880       2.11866910       0.00000000
Si       1.22587137      -1.98311202      -0.40366672       0.00000000
Si       1.34876313       1.93240125       0.24559127       0.00000000
Si      -1.72815723      -0.57661713      -2.64776377       0.00000000
Si       2.68423362      -1.73470581       1.46472766       0.00000000
Si       1.18671021      -1.20229974       3.28338159       0.00000000
Si       3.31864767       1.40781438      -0.87505564       0.00000000
Si       0.15314229       3.67855893      -0.77013921       0.00000000
Si      -2.35129860      -2.38306410       1.75062406       0.00000000
Si      -1.59169590       1.18294722       3.46425901       0.00000000
