10
Lattice="16.28999089631971 0.0 0.0 0.0 16.28999089631971 0.0 0.0 0.0 34.185847837958455" Properties=species:S:1:pos:R:3:initial_magmoms:R:1 pbc="T T T"
Si      -1.35330804       1.35485559       1.35786263       0.00000000
Si      -1.35672894      -1.35651717      -1.35707636       0.00000000
Si       1.35837423       1.35809730      -1.35704217       0.00000000
Si       1.36164852      -1.35791811       1.35881984       0.00000000
Si      -2.71349046       0.00000000      -2.71415272       0.00000000
Si      -2.71570590      -2.71316466      -0.00027349       0.00000000
Si       0.01438407       2.70508482       2.72375895       0.00000000
Si       0.00144981      -2.71490769      -2.71401598       0.00000000
Si       0.00141723       2.71539639      -2.71381086       0.00000000
Si       2.71412577       2.71546155      -0.00041023       0.00000000
