10
Lattice="16.28999089631971 0.0 0.0 0.0 16.28999089631971 0.0 0.0 0.0 34.185847837958455" Properties=species:S:1:pos:R:3:initial_magmoms:R:1 pbc="T T T"
Si      -0.54902187      -1.33499808      -1.84131917       0.00000000
Si      -1.71207900       0.95938326       1.32015562       0.00000000
Si       1.43824410      -1.16642916       1.61278664       0.00000000
Si       0.81795348       1.76428845      -1.56588364       0.00000000
Si      -1.68106284       0.41925573      -2.99392986       0.00000000
Si       1.57986936      -1.59896124      -2.89099621       0.00000000
Si       2.98813010       0.64133730       2.06732193       0.00000000
Si       2.45824245       0.59764752      -2.72792962       0.00000000
Si      -3.00319182      -0.92471814       2.13945411       0.00000000
Si      -2.86998849       2.55153528      -0.00830717       0.00000000
