10
Lattice="16.28999089631971 0.0 0.0 0.0 16.28999089631971 0.0 0.0 0.0 34.185847837958455" Properties=species:S:1:pos:R:3:initial_magmoms:R:1 pbc="T T T"
Si       1.34019459       1.36155078       1.35936681       0.00000000
Si      -1.35840681       1.35519768      -1.35663194       0.00000000
Si       1.35485559      -1.35832536      -1.35717892       0.00000000
Si      -1.34488611      -1.36870209       1.36699026       0.00000000
Si      -0.15913701       2.58867648       2.70663183       0.00000000
Si       2.63389752      -0.08899227       2.67251433       0.00000000
Si       2.71443669      -0.00055386      -2.71353737       0.00000000
Si      -0.00086337       2.71445676      -2.71360575       0.00000000
Si       2.71785618       2.71134930       0.00488858       0.00000000
Si      -0.00089595      -2.71568961      -2.71381086       0.00000000
