10
Lattice="16.28999089631971 0.0 0.0 0.0 16.28999089631971 0.0 0.0 0.0 34.185847837958455" Properties=species:S:1:pos:R:3:initial_magmoms:R:1 pbc="T T T"
Si       1.43859012      -1.27762470      -1.31280566       0.00000000
Si       1.38046414       1.16732511       1.47347924       0.00000000
Si      -1.29370293       1.45054305      -1.31314752       0.00000000
Si      -0.98469792      -1.57045374       1.49241821       0.00000000
Si      -0.60320241       1.85921028       2.69083796       0.00000000
Si       2.15080847      -0.72026235       2.77527705       0.00000000
Si      -2.19786309      -0.18254574       2.96798278       0.00000000
Si       0.08363286      -2.62653444      -2.66868552       0.00000000
Si      -2.63389752       0.08899227      -2.67251433       0.00000000
Si      -2.68376121      -2.66677074       0.15759685       0.00000000
