10
Lattice="16.28999089631971 0.0 0.0 0.0 16.28999089631971 0.0 0.0 0.0 34.185847837958455" Properties=species:S:1:pos:R:3:initial_magmoms:R:1 pbc="T T T"
Si      -1.36202319      -1.85968269       0.60666239       0.00000000
Si       1.13699313      -0.51464997       2.03470861       0.00000000
Si      -0.58899753       2.26825218      -0.57155351       0.00000000
Si       0.93664242      -0.76421277      -2.09661922       0.00000000
Si       2.77728210      -1.68129090       0.87266263       0.00000000
Si      -2.95801965      -0.11003895      -1.88757264       0.00000000
Si      -2.15972820      -2.35853136      -1.52192061       0.00000000
Si       3.14906877      -1.23447249      -1.40767144       0.00000000
Si       1.17255420       1.45839483       3.25384500       0.00000000
Si      -0.07724718      -2.88329742      -2.43670022       0.00000000
