10
Lattice="16.28999089631971 0.0 0.0 0.0 16.28999089631971 0.0 0.0 0.0 34.185847837958455" Properties=species:S:1:pos:R:3:initial_magmoms:R:1 pbc="T T T"
Si       0.89824689       1.88479440       0.99791964       0.00000000
Si      -1.40778180       0.55322469      -1.95772204       0.00000000
Si       2.20729730      -1.18602603      -0.48735372       0.00000000
Si      -1.18881162      -1.53231885       1.82709784       0.00000000
Si       2.26465928       0.33071958       2.28523841       0.00000000
Si      -1.87053183      -2.86660017      -0.06109014       0.00000000
Si      -2.89038357      -1.28107818      -1.49703330       0.00000000
Si       0.41734980      -0.71027658       3.49944109       0.00000000
Si       1.41920109      -2.55715533      -2.22026950       0.00000000
Si       0.01679499       0.59963490      -3.85896903       0.00000000
