10
Lattice="16.28999089631971 0.0 0.0 0.0 16.28999089631971 0.0 0.0 0.0 34.185847837958455" Properties=species:S:1:pos:R:3:initial_magmoms:R:1 pbc="T T T"
Si      -0.08504683      -1.43469288      -1.84784867       0.00000000
Si      -1.00070352      -1.52630784       1.48052153       0.00000000
Si      -2.06942526       1.14534990      -0.38838563       0.00000000
Si       1.88664101       1.54963512      -0.06403013       0.00000000
Si       0.78541421       3.32278533       0.97867300       0.00000000
Si      -1.19105217       3.34195866      -0.22531905       0.00000000
Si      -0.88007607      -0.13079241      -3.63959832       0.00000000
Si      -2.84996061       0.39379446      -2.51895142       0.00000000
Si      -1.51449012      -3.27331260      -1.29981503       0.00000000
Si       2.39871716       1.96077843      -2.34884255       0.00000000
