10
Lattice="16.28999089631971 0.0 0.0 0.0 16.28999089631971 0.0 0.0 0.0 34.185847837958455" Properties=species:S:1:pos:R:3:initial_magmoms:R:1 pbc="T T T"
Si       0.90293189      -1.63005885      -1.41030375       0.00000000
Si       1.22356796       2.13459273       0.04033932       0.00000000
Si       0.21442201      -1.24097220       2.24580634       0.00000000
Si      -1.91193842       1.28440134      -1.24251952       0.00000000
Si       1.88805335       0.19622934      -2.62667109       0.00000000
Si       0.73148616       2.13086232       2.41041129       0.00000000
Si      -0.87920129       0.61683714       3.23935019       0.00000000
Si       3.17807474       1.52575398      -1.12180922       0.00000000
Si      -0.84313582      -2.59110369      -2.68929959       0.00000000
Si       3.84423800      -0.98552871      -0.36090020       0.00000000
