10
Lattice="16.28999089631971 0.0 0.0 0.0 16.28999089631971 0.0 0.0 0.0 34.185847837958455" Properties=species:S:1:pos:R:3:initial_magmoms:R:1 pbc="T T T"
Si      -1.97646637       0.01917333      -1.20399205       0.00000000
Si       1.10122681      -1.77315021      -1.04270313       0.00000000
Si       0.17370679      -0.88844031       2.17275115       0.00000000
Si       0.55231897       2.32432236       0.08686629       0.00000000
Si       2.18009722       0.17495460       2.79267766       0.00000000
Si      -0.78541421      -3.32278533      -0.97867300       0.00000000
Si      -3.61675534       1.18581426      -0.04194606       0.00000000
Si      -2.85483946      -2.17743543      -1.36705863       0.00000000
Si       2.86528720       2.57549787      -0.15622941       0.00000000
Si      -1.60467970       0.46599174      -3.48432612       0.00000000
