10
Lattice="16.28999089631971 0.0 0.0 0.0 16.28999089631971 0.0 0.0 0.0 34.185847837958455" Properties=species:S:1:pos:R:3:initial_magmoms:R:1 pbc="T T T"
Si       1.62028550      -0.95130342      -1.41850836       0.00000000
Si      -1.54988600      -1.80776646      -0.45453529       0.00000000
Si      -0.70606400       2.22689187      -0.65240308       0.00000000
Si       0.88834974       0.56938437       2.24672936       0.00000000
Si      -2.22891836      -2.25188073       1.75062406       0.00000000
Si      -1.83900092       2.86775676       1.30613942       0.00000000
Si       1.39503553       3.10920714      -1.34880338       0.00000000
Si      -2.98813010      -0.64133730      -2.06732193       0.00000000
Si       3.62667593       0.11209149      -0.79858185       0.00000000
Si       1.50033897      -3.32443062      -0.70754489       0.00000000
