10
Lattice="16.28999089631971 0.0 0.0 0.0 16.28999089631971 0.0 0.0 0.0 34.185847837958455" Properties=species:S:1:pos:R:3:initial_magmoms:R:1 pbc="T T T"
Si      -0.02723362       2.21423454       0.74190168       0.00000000
Si      -1.61068745      -1.51402518       0.82893890       0.00000000
Si       2.07138101      -1.02921849       0.52263353       0.00000000
Si       0.49208180       0.00373041      -2.37007197       0.00000000
Si      -0.73148616      -2.13086232      -2.41041129       0.00000000
Si      -0.51706415      -3.37183452      -0.16460495       0.00000000
Si       2.16183938       2.99915190      -0.05548366       0.00000000
Si      -0.36388928       2.09047941       3.10168371       0.00000000
Si       1.60729520      -3.34202382       0.98574947       0.00000000
Si      -1.86728753       3.36385242      -0.30651048       0.00000000
