10
Lattice="16.28999089631971 0.0 0.0 0.0 16.28999089631971 0.0 0.0 0.0 34.185847837958455" Properties=species:S:1:pos:R:3:initial_magmoms:R:1 pbc="T T T"
Si       2.31296823       0.25117551      -0.24309570       0.00000000
Si      -0.91020049       1.74617397      -1.29844760       0.00000000
Si      -0.55231897      -2.32432236      -0.08686629       0.00000000
Si      -0.60386215       0.84774789       2.15558984       0.00000000
Si      -2.52878534      -2.30514903      -1.29085834       0.00000000
Si      -2.73970826       2.44172439       0.09999366       0.00000000
Si       1.20513420       0.08065179       3.47598476       0.00000000
Si      -1.05648632       3.12202737       1.67732956       0.00000000
Si       3.22743996      -1.47650931       1.07343622       0.00000000
Si      -0.02541240       3.73665137      -0.34657632       0.00000000
