10
Lattice="10.86 0.0 0.0 0.0 10.86 0.0 0.0 0.0 10.86" Properties=species:S:1:pos:R:3:initial_magmoms:R:1 pbc="T T T"
Si      -1.35750000      -1.35750000       1.35750000       0.00000000
Si      -1.35750000       1.35750000      -1.35750000       0.00000000
Si       1.35750000       1.35750000       1.35750000       0.00000000
Si       1.35750000      -1.35750000      -1.35750000       0.00000000
Si      -2.69029350      -2.53520184      -0.09727302       0.00000000
Si       2.52856638       0.03449136      -2.76400032       0.00000000
Si      -2.70286938      -0.12503118      -2.60184966       0.00000000
Si       2.61424092      -0.06660438       2.71022160       0.00000000
Si      -2.48750472      -0.14119086       2.86509606       0.00000000
Si       0.00000000      -2.71500000       2.71500000       0.00000000
