10
Lattice="16.28999089631971 0.0 0.0 0.0 16.28999089631971 0.0 0.0 0.0 34.51530692428229" Properties=species:S:1:pos:R:3:initial_magmoms:R:1 pbc="T T T"
Si       0.48787573      -1.74985551      -1.54828850       0.00000000
Si       0.17971617       0.35622909       2.37392962       0.00000000
Si      -2.32493065       0.47064321      -0.48069495       0.00000000
Si       1.37341153       1.89463844      -0.72730695       0.00000000
Si      -0.69220024       2.50479017       2.28180822       0.00000000
Si      -2.62157155       2.32605629       0.92715069       0.00000000
Si       1.04521038       3.52729718       1.00494824       0.00000000
Si      -0.93402529      -3.65516649      -0.63201014       0.00000000
Si       2.59418413      -2.73579147      -0.72602989       0.00000000
Si       0.33432944      -0.65684538      -3.86098794       0.00000000
