10
Lattice="16.28999089631971 0.0 0.0 0.0 16.28999089631971 0.0 0.0 0.0 34.51530692428229" Properties=species:S:1:pos:R:3:initial_magmoms:R:1 pbc="T T T"
Si      -0.20895183      -0.95451255       2.13121785       0.00000000
Si       1.48279725       1.80880902       0.62693639       0.00000000
Si       0.82508850      -1.79035245      -1.45999830       0.00000000
Si      -2.10630840       0.98593596      -0.82225862       0.00000000
Si      -2.52870973      -1.31693247       2.25923519       0.00000000
Si      -3.52820942      -0.91937502       0.09401975       0.00000000
Si       0.50676561      -0.77111973      -3.53840770       0.00000000
Si      -2.59418413       2.73579147       0.72602989       0.00000000
Si       0.96772374      -3.00275199       2.19306931       0.00000000
Si       0.74528379       0.34757973       3.83285795       0.00000000
