10
Lattice="16.28999089631971 0.0 0.0 0.0 16.28999089631971 0.0 0.0 0.0 34.51530692428229" Properties=species:S:1:pos:R:3:initial_magmoms:R:1 pbc="T T T"
Si       1.35671265      -1.35471625      -1.35717714       0.00000000
Si       1.35694071       1.35768345       1.35652135       0.00000000
Si      -1.35830907      -1.35688282       1.35648684       0.00000000
Si      -1.35529542       1.35654641      -1.36297572       0.00000000
Si       2.71161711      -2.71577833      -0.00024161       0.00000000
Si       2.71414206       0.00075940       2.71390558       0.00000000
Si      -0.00024435       2.71516824       2.71328431       0.00000000
Si      -0.00048870      -2.71489867       2.71369849       0.00000000
Si       2.71353933       2.71528227      -0.00151867       0.00000000
Si      -2.71585251       0.00110079       2.71369849       0.00000000
