10
Lattice="16.28999089631971 0.0 0.0 0.0 16.28999089631971 0.0 0.0 0.0 34.51530692428229" Properties=species:S:1:pos:R:3:initial_magmoms:R:1 pbc="T T T"
Si       1.57946211      -0.61740729      -1.58660052       0.00000000
Si       1.62404784       0.76229055       1.49472072       0.00000000
Si      -1.47595545       1.62307044      -0.83872243       0.00000000
Si      -1.19606067      -1.97167644       0.52473650       0.00000000
Si       0.06784785      -0.70887564      -3.38084523       0.00000000
Si      -2.06314479       0.31815999      -2.76916462       0.00000000
Si       2.68986996      -1.21306743       2.04765624       0.00000000
Si       2.97893601      -2.02561263      -0.16660548       0.00000000
Si       2.44641591       1.41734403      -2.25930422       0.00000000
Si      -2.79274131       2.12779980       1.06093210       0.00000000
