10
Lattice="16.28999089631971 0.0 0.0 0.0 16.28999089631971 0.0 0.0 0.0 34.51530692428229" Properties=species:S:1:pos:R:3:initial_magmoms:R:1 pbc="T T T"
Si       2.21687352      -0.26541134       0.66020916       0.00000000
Si      -0.48576780       0.43115395      -2.27200586       0.00000000
Si      -1.43415531      -1.45231933       1.19819955       0.00000000
Si       0.30222837       1.90508944       1.50683560       0.00000000
Si      -2.10093759       2.36453260       1.34923862       0.00000000
Si      -0.67846221      -3.54216343      -0.05042689       0.00000000
Si       3.40016283       1.18976296      -0.74908612       0.00000000
Si       0.29481642      -1.53026698      -3.34084197       0.00000000
Si       0.71029287       2.40283039      -2.79674237       0.00000000
Si      -0.53647857      -1.07328131       3.56519159       0.00000000
