10
Lattice="16.28999089631971 0.0 0.0 0.0 16.28999089631971 0.0 0.0 0.0 34.51530692428229" Properties=species:S:1:pos:R:3:initial_magmoms:R:1 pbc="T T T"
Si      -2.18289258       0.71407704       0.79561278       0.00000000
Si      -0.22669164       0.52523847      -2.42176786       0.00000000
Si       2.15790372       1.36369943      -0.15559509       0.00000000
Si       0.52067727      -2.10754386       1.42382624       0.00000000
Si       1.86411357       3.13702883       1.44526025       0.00000000
Si       0.37110249      -1.46087973       3.73435120       0.00000000
Si      -3.55630411      -1.18056141       1.52291974       0.00000000
Si      -0.96211998      -3.91635288       0.79688985       0.00000000
Si      -1.43198874      -1.02675123      -3.78539937       0.00000000
Si      -1.67448168       2.58075791      -2.87346994       0.00000000
