10
Lattice="16.28999089631971 0.0 0.0 0.0 16.28999089631971 0.0 0.0 0.0 34.51530692428229" Properties=species:S:1:pos:R:3:initial_magmoms:R:1 pbc="T T T"
Si       0.49068738      -2.27841714       0.03054606       0.00000000
Si      -2.23932114       0.43445430      -0.49080794       0.00000000
Si       1.19677743       1.01465523      -1.78609910       0.00000000
Si       0.68932764       0.46002960       2.26489571       0.00000000
Si      -1.83091455       2.82220992      -0.15704473       0.00000000
Si       2.69926929      -0.68659092      -2.27349002       0.00000000
Si      -3.25014822      -1.46021931       0.64115670       0.00000000
Si       2.75108778      -2.33670276      -0.62179360       0.00000000
Si      -0.78986952      -3.31327197      -1.59650641       0.00000000
Si       2.53882908       1.85906367       2.11064671       0.00000000
