10
Lattice="16.28999089631971 0.0 0.0 0.0 16.28999089631971 0.0 0.0 0.0 34.51530692428229" Properties=species:S:1:pos:R:3:initial_magmoms:R:1 pbc="T T T"
Si       1.35641943       1.35661491      -1.35634877       0.00000000
Si      -1.35734796       1.35741312       1.35700457       0.00000000
Si      -1.35822762      -1.35817875      -1.35596911       0.00000000
Si       1.35751086      -1.35755973       1.35769487       0.00000000
Si       2.71375110      -0.00175932       2.71487201       0.00000000
Si       2.71510317       2.71464705       0.00010355       0.00000000
Si      -2.71479692       2.71521720      -0.00024161       0.00000000
Si      -2.71474805       0.00086337       2.71532071       0.00000000
Si      -0.00122175       2.71494027       2.71518265       0.00000000
Si      -2.71488651      -2.71541268       0.00006903       0.00000000
