10
Lattice="16.28999089631971 0.0 0.0 0.0 16.28999089631971 0.0 0.0 0.0 34.51530692428229" Properties=species:S:1:pos:R:3:initial_magmoms:R:1 pbc="T T T"
Si       2.27211291      -0.50153652      -0.10344243       0.00000000
Si      -1.54287477      -1.38396582      -1.11449988       0.00000000
Si      -0.06734286       2.11929642      -1.12737410       0.00000000
Si      -1.05011856       1.24519131       1.77419131       0.00000000
Si       0.01091430       3.15143082       0.97992463       0.00000000
Si      -3.18715479      -1.01423169       0.42384821       0.00000000
Si       2.00336049       2.37265479       1.99115465       0.00000000
Si       3.36774573       1.50544035       0.35036508       0.00000000
Si      -1.94382054      -0.25976034      -3.15870459       0.00000000
Si      -3.35349198       1.12202262       1.32908167       0.00000000
