10
Lattice="16.28999089631971 0.0 0.0 0.0 16.28999089631971 0.0 0.0 0.0 34.51530692428229" Properties=species:S:1:pos:R:3:initial_magmoms:R:1 pbc="T T T"
Si       2.23940259      -0.68966973       0.10651430       0.00000000
Si      -1.07823510       0.10801899       2.09904956       0.00000000
Si       0.37893798       2.34652563      -0.03917490       0.00000000
Si      -1.02762207      -1.05389784      -1.94549088       0.00000000
Si       2.94223464       0.53297622      -1.74716581       0.00000000
Si      -1.79607024      -2.05006392       2.37686342       0.00000000
Si      -2.90769984       1.47377259       1.60596361       0.00000000
Si      -3.08617308       1.86947298      -0.69914245       0.00000000
Si       1.19742903       2.88088650       2.12593700       0.00000000
Si       2.17341180       2.74362696      -1.44011747       0.00000000
