10
Lattice="16.28999089631971 0.0 0.0 0.0 16.28999089631971 0.0 0.0 0.0 34.51530692428229" Properties=species:S:1:pos:R:3:initial_magmoms:R:1 pbc="T T T"
Si      -1.35436689      -1.35731538      -1.35793648       0.00000000
Si      -1.35438318       1.36135530       1.35634877       0.00000000
Si       1.36026387       1.35834269      -1.35772939       0.00000000
Si       1.35842310      -1.35687555       1.36456342       0.00000000
Si      -2.71067229       2.71619690      -0.00165674       0.00000000
Si      -2.71218726       0.00070047      -2.71514814       0.00000000
Si      -2.71324611      -2.71440270      -0.00010355       0.00000000
Si      -0.00042354       2.69054667       2.73727246       0.00000000
Si       0.00307881      -2.71469592      -2.71518265       0.00000000
Si       0.00306252       2.71526674      -2.71511362       0.00000000
