10
Lattice="16.28999089631971 0.0 0.0 0.0 16.28999089631971 0.0 0.0 0.0 34.51530692428229" Properties=species:S:1:pos:R:3:initial_magmoms:R:1 pbc="T T T"
Si       1.32706485       1.39147551      -1.37902534       0.00000000
Si       0.57809952      -1.54776177       1.73115070       0.00000000
Si      -1.45370331      -1.24289442      -1.51139162       0.00000000
Si      -0.04116483      -0.51810345       3.74284197       0.00000000
Si      -0.01185912      -2.56696191      -2.93000604       0.00000000
Si       2.12483502       3.30008426      -0.23656805       0.00000000
Si       3.00198636      -1.94818626       1.72914881       0.00000000
Si       2.69837334       0.15905556      -2.94042967       0.00000000
Si      -3.27808557      -2.28263625      -0.42046570       0.00000000
Si       1.63896948       2.99337125       2.12369351       0.00000000
