10
Lattice="16.28999089631971 0.0 0.0 0.0 16.28999089631971 0.0 0.0 0.0 34.51530692428229" Properties=species:S:1:pos:R:3:initial_magmoms:R:1 pbc="T T T"
Si       2.26088910      -0.81539595      -0.00203640       0.00000000
Si      -0.14957478       0.64666413       2.31052497       0.00000000
Si      -1.48279725      -1.80880902      -0.62693639       0.00000000
Si      -0.52067727       2.10754386      -1.42382624       0.00000000
Si      -1.69174908      -2.76332157       1.50428146       0.00000000
Si      -0.73751346      -1.46122929       3.20592156       0.00000000
Si       1.74659751       2.03552414       2.73533960       0.00000000
Si      -3.58910565      -0.82287306      -1.44919500       0.00000000
Si      -2.70356985       2.82162089      -0.62821345       0.00000000
Si       2.88015345      -1.84505427      -2.01372768       0.00000000
