10
Lattice="16.28999089631971 0.0 0.0 0.0 16.28999089631971 0.0 0.0 0.0 34.51530692428229" Properties=species:S:1:pos:R:3:initial_magmoms:R:1 pbc="T T T"
Si       1.70776215       1.54162044      -0.64405599       0.00000000
Si       0.28474920      -0.26586909       2.37399865       0.00000000
Si       0.77178762      -1.93437071      -1.27092334       0.00000000
Si      -2.43254402       0.44266446      -0.28771976       0.00000000
Si       0.75355911       2.38335732      -2.64211371       0.00000000
Si      -0.65832125      -3.61698992      -0.59680451       0.00000000
Si       2.57484627      -0.74821599       2.64984514       0.00000000
Si      -0.97762317      -2.08861746       3.05508958       0.00000000
Si      -1.54374629       2.65525371      -2.33599728       0.00000000
Si       2.29495149       2.84653089       1.28638621       0.00000000
