10
Lattice="16.28999089631971 0.0 0.0 0.0 16.28999089631971 0.0 0.0 0.0 34.51530692428229" Properties=species:S:1:pos:R:3:initial_magmoms:R:1 pbc="T T T"
Si      -1.06582212       1.97535798      -0.55293553       0.00000000
Si      -1.18328931      -1.45517430       1.40929528       0.00000000
Si       1.97177418       0.46918458       1.21134989       0.00000000
Si       0.28906605      -0.81254520      -2.21426172       0.00000000
Si       2.69162928      -0.92004617      -2.08179190       0.00000000
Si      -0.43368867      -3.51201716       0.34177076       0.00000000
Si      -0.84988188      -2.86654220      -1.92730130       0.00000000
Si      -2.68986996       1.21306743      -2.04765624       0.00000000
Si       3.52789272       0.76774770      -0.62700542       0.00000000
Si      -3.40016283      -1.18976296       0.74908612       0.00000000
