10
Lattice="16.28999089631971 0.0 0.0 0.0 16.28999089631971 0.0 0.0 0.0 34.51530692428229" Properties=species:S:1:pos:R:3:initial_magmoms:R:1 pbc="T T T"
Si       1.84718826      -1.50341713       0.25696043       0.00000000
Si      -1.83277161      -0.85226185       1.29905475       0.00000000
Si       0.95889456       1.81112220       1.38493924       0.00000000
Si      -0.98673417      -1.06607136      -2.88613706       0.00000000
Si       2.54550798      -1.32136987      -1.93996843       0.00000000
Si      -0.34670007      -2.11968168       2.75600880       0.00000000
Si      -2.90137932       1.10442942      -2.03951063       0.00000000
Si       2.39733414       0.62001369       2.79877674       0.00000000
Si       2.16832932       0.85828752      -3.08408246       0.00000000
Si       1.00550025      -3.55279103       1.26440137       0.00000000
