10
Lattice="16.28999089631971 0.0 0.0 0.0 16.28999089631971 0.0 0.0 0.0 34.51530692428229" Properties=species:S:1:pos:R:3:initial_magmoms:R:1 pbc="T T T"
Si       1.35835794       1.35664749      -1.35676296       0.00000000
Si       1.35685926      -1.35728280       1.35779842       0.00000000
Si      -1.35744570       1.35742941       1.35738423       0.00000000
Si      -1.35853713      -1.35780408      -1.35790196       0.00000000
Si       2.71114470       0.00187335      -2.71545877       0.00000000
Si      -0.00013032       2.71435383       2.71376752       0.00000000
Si       2.71358820       0.00079821       2.71456138       0.00000000
Si       2.71451673      -2.71508688      -0.00048321       0.00000000
Si       2.71474479       2.71494027      -0.00027612       0.00000000
Si      -2.71513575       2.71471221      -0.00034515       0.00000000
