10
Lattice="16.28999089631971 0.0 0.0 0.0 16.28999089631971 0.0 0.0 0.0 34.51530692428229" Properties=species:S:1:pos:R:3:initial_magmoms:R:1 pbc="T T T"
Si       0.46483515       2.18386998       0.69776183       0.00000000
Si       1.26716652       0.02867040      -1.97672725       0.00000000
Si       0.66464829      -1.92208968       1.25135315       0.00000000
Si      -2.39982651       0.40428522      -0.19335486       0.00000000
Si      -0.17161515      -3.60988355      -0.20343333       0.00000000
Si      -1.27747809       2.55705759       2.22530663       0.00000000
Si       0.09260865       3.45701493      -1.23268036       0.00000000
Si       0.80615952       2.10264804      -2.97128637       0.00000000
Si      -1.21130811       0.50766156       3.58355374       0.00000000
Si       0.43624620      -1.50459327      -3.48991366       0.00000000
