10
Lattice="16.28999089631971 0.0 0.0 0.0 16.28999089631971 0.0 0.0 0.0 34.51530692428229" Properties=species:S:1:pos:R:3:initial_magmoms:R:1 pbc="T T T"
Si       1.35708732      -1.35786924       1.35738423       0.00000000
Si      -1.35778779       1.35746199       1.35741875       0.00000000
Si      -1.35866745      -1.35697329      -1.35741875       0.00000000
Si       1.35835794       1.35848826      -1.35783293       0.00000000
Si       0.00032580       2.71280628       2.71497556       0.00000000
Si       2.71435383       2.71476108       0.00027612       0.00000000
Si       2.71428867      -0.00027693       2.71483750       0.00000000
Si      -0.00027693      -2.71581993       2.71373301       0.00000000
Si      -2.71526607       2.71445157       0.00003452       0.00000000
Si       2.71459818      -2.71523349      -0.00031064       0.00000000
