10
Lattice="16.28999089631971 0.0 0.0 0.0 16.28999089631971 0.0 0.0 0.0 34.51530692428229" Properties=species:S:1:pos:R:3:initial_magmoms:R:1 pbc="T T T"
Si       1.36101321       1.34206794       1.35258660       0.00000000
Si      -1.35795069       1.35369900      -1.35810906       0.00000000
Si       1.35601218      -1.35938421      -1.35824712       0.00000000
Si      -1.36826226      -1.36409202       1.38592841       0.00000000
Si       0.02940345       2.67199983       2.71442331       0.00000000
Si       2.61221553      -0.10487502       2.78486910       0.00000000
Si       2.71653669       2.71044423      -0.00027612       0.00000000
Si      -0.00118917       2.71254564      -2.71559684       0.00000000
Si      -2.71274112      -2.71639008       0.00189834       0.00000000
Si       2.71358820      -0.00169416      -2.71580393       0.00000000
