10
Lattice="16.28999089631971 0.0 0.0 0.0 16.28999089631971 0.0 0.0 0.0 34.51530692428229" Properties=species:S:1:pos:R:3:initial_magmoms:R:1 pbc="T T T"
Si      -0.52996257       0.81614529       2.09856635       0.00000000
Si      -0.71658081       1.58325768      -1.55857407       0.00000000
Si      -1.31725827      -1.87383870      -0.54154547       0.00000000
Si       2.16116172      -0.94727979       0.21527209       0.00000000
Si       0.02479338      -1.02943026       3.35520035       0.00000000
Si       1.85846094      -2.10916404       2.31207816       0.00000000
Si       1.20624192       1.87414821      -2.91996208       0.00000000
Si       0.18523359      -3.57508485      -1.02893639       0.00000000
Si      -2.80499139       0.80383005      -2.34472966       0.00000000
Si      -2.80207548       1.31768181       2.20200878       0.00000000
