10
Lattice="16.28999089631971 0.0 0.0 0.0 16.28999089631971 0.0 0.0 0.0 34.51530692428229" Properties=species:S:1:pos:R:3:initial_magmoms:R:1 pbc="T T T"
Si      -1.84982724      -0.82627767      -1.13092918       0.00000000
Si      -0.21921453       2.22296598       0.68716563       0.00000000
Si       0.07415208      -2.41979805      -0.08835924       0.00000000
Si       1.66623894       0.81107910      -2.57891614       0.00000000
Si       0.93151107      -2.41181595       2.35670647       0.00000000
Si       3.30960672       0.95044005      -0.69268808       0.00000000
Si      -2.14203726       1.93207545       2.04855364       0.00000000
Si       1.79826939       2.60920188       1.84508579       0.00000000
Si      -0.44328348      -2.46076740      -2.68232406       0.00000000
Si      -1.42545645       0.34881777       3.60712771       0.00000000
