10
Lattice="16.28999089631971 0.0 0.0 0.0 16.28999089631971 0.0 0.0 0.0 34.51530692428229" Properties=species:S:1:pos:R:3:initial_magmoms:R:1 pbc="T T T"
Si      -0.50841090      -2.23686135       0.01073427       0.00000000
Si       2.15130627       0.16529463       0.91299941       0.00000000
Si      -1.63936044       1.08747153       1.29252994       0.00000000
Si      -0.69056568       0.98471421      -2.09321647       0.00000000
Si      -2.79699300      -1.86611724      -0.15248871       0.00000000
Si      -0.06486678       3.21564600      -1.50535144       0.00000000
Si      -1.24322022       3.28667040       0.51969727       0.00000000
Si      -3.56581584       0.34453350       0.15455963       0.00000000
Si       2.66554899       2.46208689       0.94199228       0.00000000
Si       2.26245294       2.78925525      -1.35986934       0.00000000
