10
Lattice="16.28999089631971 0.0 0.0 0.0 16.28999089631971 0.0 0.0 0.0 34.51530692428229" Properties=species:S:1:pos:R:3:initial_magmoms:R:1 pbc="T T T"
Si       0.29445804       0.07553593      -2.29537274       0.00000000
Si       1.03985586       1.66774481       1.22715791       0.00000000
Si       0.67113171      -2.17947168       0.77114142       0.00000000
Si      -2.46058821       0.03269319      -0.08231905       0.00000000
Si      -1.92735135      -0.70827291      -2.28094533       0.00000000
Si      -2.52395631      -1.47372372       1.76183483       0.00000000
Si      -0.50722173      -2.10844728       2.79619012       0.00000000
Si      -0.03663621       1.59111339       3.31647415       0.00000000
Si       0.57122514       3.69640367       0.02999382       0.00000000
Si       3.36132747       1.11626966       1.61635273       0.00000000
