10
Lattice="16.28999089631971 0.0 0.0 0.0 16.28999089631971 0.0 0.0 0.0 34.51530692428229" Properties=species:S:1:pos:R:3:initial_magmoms:R:1 pbc="T T T"
Si      -1.36283184       1.35871632       1.34801677       0.00000000
Si       1.38171454      -1.35136953       1.36176078       0.00000000
Si      -0.95059318      -1.73581353      -1.30370082       0.00000000
Si       0.75529888       1.87836732      -1.27016090       0.00000000
Si       0.17187742       0.66536505      -3.25058236       0.00000000
Si       1.95629542      -0.82842795      -3.06589085       0.00000000
Si      -2.61662427      -2.73197961      -0.04314071       0.00000000
Si       2.57925760      -2.78436825      -0.08759645       0.00000000
Si      -2.63684016       2.76684021      -0.27606048       0.00000000
Si      -2.70361287       0.00490329       2.72790155       0.00000000
