10
Lattice="16.28999089631971 0.0 0.0 0.0 16.28999089631971 0.0 0.0 0.0 34.51530692428229" Properties=species:S:1:pos:R:3:initial_magmoms:R:1 pbc="T T T"
Si       1.66603110       0.99616608      -1.26056012       0.00000000
Si       1.27109412      -1.35602847       1.41211864       0.00000000
Si      -1.51726689      -0.97042788      -1.52999680       0.00000000
Si      -1.43510013       1.38653964       1.37808653       0.00000000
Si       3.26553317      -0.79143336      -1.46869758       0.00000000
Si       2.59458716      -2.73669556       0.02706002       0.00000000
Si       2.61662427       2.73197961       0.04314071       0.00000000
Si      -2.75335209      -2.59689804       0.04305787       0.00000000
Si       2.63199715       0.02386485       2.76852264       0.00000000
Si      -0.08436591      -2.69335276       2.77311318       0.00000000
