10
Lattice="16.28999089631971 0.0 0.0 0.0 16.28999089631971 0.0 0.0 0.0 34.51530692428229" Properties=species:S:1:pos:R:3:initial_magmoms:R:1 pbc="T T T"
Si       0.29664090      -1.85541308      -1.40784564       0.00000000
Si       1.92937131       0.17873388       1.35465752       0.00000000
Si      -0.13563054       2.20815837      -0.86602405       0.00000000
Si      -1.93772808      -0.00656487       1.39562722       0.00000000
Si      -0.61928064      -0.58269656      -3.26956782       0.00000000
Si      -0.95278581       1.63603728       2.81710641       0.00000000
Si      -1.89524376       1.52994051      -2.57256532       0.00000000
Si      -1.09307529       3.27551175       1.09441196       0.00000000
Si       2.62157155      -2.32605629      -0.92715069       0.00000000
Si       2.80128771      -1.96982720       1.44677893       0.00000000
