10
Lattice="16.28999089631971 0.0 0.0 0.0 16.28999089631971 0.0 0.0 0.0 34.51530692428229" Properties=species:S:1:pos:R:3:initial_magmoms:R:1 pbc="T T T"
Si      -1.55173653      -1.58955444       0.68971976       0.00000000
Si      -0.29664090       1.85541308       1.40784564       0.00000000
Si       2.32493065      -0.47064321       0.48069495       0.00000000
Si      -0.91592154       1.27271652      -1.86172218       0.00000000
Si      -2.57098554      -2.16323937      -1.49913868       0.00000000
Si      -1.27343817      -1.69162758       3.03203335       0.00000000
Si       2.81280637      -2.22049872      -1.06759356       0.00000000
Si      -0.95894343      -3.66897294      -0.18693501       0.00000000
Si       1.63273041       2.03414696       2.76250316       0.00000000
Si       0.87521283       0.85228140      -3.59760148       0.00000000
