10
Lattice="16.28999089631971 0.0 0.0 0.0 16.28999089631971 0.0 0.0 0.0 34.51530692428229" Properties=species:S:1:pos:R:3:initial_magmoms:R:1 pbc="T T T"
Si       0.98507259       1.57120308      -1.42658746       0.00000000
Si      -2.33813628       0.24692382      -0.45739710       0.00000000
Si       0.48654972       1.09740843       2.09884247       0.00000000
Si       0.92812275      -2.03931252      -1.06279592       0.00000000
Si       1.81692048       0.17327673      -3.11107344       0.00000000
Si       2.29692488       3.01304727      -0.05325715       0.00000000
Si       0.33335856      -1.65306033      -3.39672228       0.00000000
Si      -0.80119107       2.74540257      -2.53142306       0.00000000
Si       0.93550212      -0.48381300       3.72178763       0.00000000
Si      -0.37895427      -3.86647385      -0.38422461       0.00000000
