10
Lattice="16.28999089631971 0.0 0.0 0.0 16.28999089631971 0.0 0.0 0.0 34.51530692428229" Properties=species:S:1:pos:R:3:initial_magmoms:R:1 pbc="T T T"
Si      -0.20660607      -1.83738168       1.39911326       0.00000000
Si      -1.96910262       1.02631887       0.72668568       0.00000000
Si       2.17148048       0.83856033       0.30718640       0.00000000
Si       0.10485873      -0.70998336      -2.34597221       0.00000000
Si       2.07344726      -2.24578827       1.33767598       0.00000000
Si       2.52781119      -0.06266763       2.42559906       0.00000000
Si      -1.12257648       0.99644301      -3.42053786       0.00000000
Si      -0.24724962      -1.10987028       3.65075508       0.00000000
Si       2.19002175       3.13856172      -0.01125200       0.00000000
Si      -2.63391381       2.65520484      -0.88276398       0.00000000
