10
Lattice="16.28999089631971 0.0 0.0 0.0 16.28999089631971 0.0 0.0 0.0 34.51530692428229" Properties=species:S:1:pos:R:3:initial_magmoms:R:1 pbc="T T T"
Si       1.35113994      -1.33265232      -1.50790557       0.00000000
Si      -1.49031077      -1.28358684       1.42368818       0.00000000
Si      -1.36284152       1.37280717      -1.51342802       0.00000000
Si       1.17037144       1.56926457       1.52568096       0.00000000
Si       2.61979374       2.64743451      -0.19822152       0.00000000
Si       2.83242711      -2.51698419       0.07797012       0.00000000
Si      -2.82664463       2.63852388      -0.11055259       0.00000000
Si      -2.80273091      -2.69700498      -0.01249455       0.00000000
Si      -0.67206407       2.72134224       2.77544641       0.00000000
Si      -0.01227020      -2.68858305      -2.89159048       0.00000000
