10
Lattice="16.28999089631971 0.0 0.0 0.0 16.28999089631971 0.0 0.0 0.0 34.51530692428229" Properties=species:S:1:pos:R:3:initial_magmoms:R:1 pbc="T T T"
Si       1.00069470      -2.09815200      -0.01535932       0.00000000
Si       1.60731216       1.21578723      -1.19184873       0.00000000
Si      -2.17077282      -0.36142623      -1.01443995       0.00000000
Si       0.24189021       0.43060986       2.37755373       0.00000000
Si      -0.49269105      -3.19852521       1.38806836       0.00000000
Si      -0.88484022      -1.48561542       3.07690327       0.00000000
Si       3.01039919      -1.65433095       1.13872964       0.00000000
Si       0.73539576       3.36434831      -1.28397014       0.00000000
Si      -3.58883361       1.19578294      -0.13509299       0.00000000
Si       2.55933560       0.00402363       2.78897642       0.00000000
