10
Lattice="16.28999089631971 0.0 0.0 0.0 16.28999089631971 0.0 0.0 0.0 34.51530692428229" Properties=species:S:1:pos:R:3:initial_magmoms:R:1 pbc="T T T"
Si       1.12673043       1.91622528      -0.69934954       0.00000000
Si       0.40309605      -0.32716836       2.30186162       0.00000000
Si      -2.32731972       0.42639075      -0.14548210       0.00000000
Si       0.39214917      -1.71290979      -1.68883491       0.00000000
Si      -0.11114667      -2.62396062       2.27286875       0.00000000
Si       0.88484022       1.48561542      -3.07690327       0.00000000
Si      -2.95301862      -1.80454104      -0.73334714       0.00000000
Si       1.88553492      -0.61253658      -3.09226259       0.00000000
Si       3.44417582       1.48963905      -0.28792685       0.00000000
Si       0.36287604       3.72213209       0.69972921       0.00000000
