10
Lattice="16.28999089631971 0.0 0.0 0.0 16.28999089631971 0.0 0.0 0.0 34.51530692428229" Properties=species:S:1:pos:R:3:initial_magmoms:R:1 pbc="T T T"
Si       1.35740009       1.35654975      -1.35831615       0.00000000
Si      -1.35802272      -1.35827649      -1.35814357       0.00000000
Si       1.35709058      -1.36052451       1.36090480       0.00000000
Si      -1.36291287       1.36326123       1.35959321       0.00000000
Si       2.71352630       2.71407690      -0.00013806       0.00000000
Si      -2.71458582      -2.71420722      -0.00065579       0.00000000
Si      -0.00004887       2.71435383      -2.71556232       0.00000000
Si       2.71474805      -0.00086337      -2.71532071       0.00000000
Si      -2.71654062       2.71373481      -0.00189834       0.00000000
Si      -2.71557951      -0.00094482      -2.71566587       0.00000000
