10
Lattice="16.28999089631971 0.0 0.0 0.0 16.28999089631971 0.0 0.0 0.0 34.51530692428229" Properties=species:S:1:pos:R:3:initial_magmoms:R:1 pbc="T T T"
Si       1.91530978       0.76093848       1.07953586       0.00000000
Si      -0.35633072       0.90122796      -2.11841266       0.00000000
Si      -1.66856256       0.99178407       1.40598181       0.00000000
Si      -0.45436394      -2.18312064      -1.08792308       0.00000000
Si      -2.77506081      -1.04720265       1.22515602       0.00000000
Si      -0.98879715      -2.22140214       2.32999161       0.00000000
Si      -2.73441726      -1.77471405      -1.02648580       0.00000000
Si      -2.52781119       0.06266763      -2.42559906       0.00000000
Si       3.55958980       0.39120435      -0.45881223       0.00000000
Si      -0.15694926      -3.61932849       0.64550563       0.00000000
