10
Lattice="16.28999089631971 0.0 0.0 0.0 16.28999089631971 0.0 0.0 0.0 34.51530692428229" Properties=species:S:1:pos:R:3:initial_magmoms:R:1 pbc="T T T"
Si       1.35710498       1.35764118       1.35731520       0.00000000
Si      -1.35715993       1.35754344      -1.35752230       0.00000000
Si      -1.35843055      -1.35809730       1.35576201       0.00000000
Si       1.35806120      -1.35747828      -1.35790196       0.00000000
Si      -0.00480280      -2.70857088       2.71725357       0.00000000
Si      -2.71195036      -0.00294849       2.71521717       0.00000000
Si      -2.71423096       2.71466675      -0.00031064       0.00000000
Si      -0.00067526       2.71539639       2.71369849       0.00000000
Si      -2.71486627       0.00017919      -2.71497556       0.00000000
Si      -2.71489885      -2.71508688      -0.00031064       0.00000000
