10
Lattice="16.28999089631971 0.0 0.0 0.0 16.28999089631971 0.0 0.0 0.0 34.63643526849801" Properties=species:S:1:pos:R:3:initial_magmoms:R:1 pbc="T T T"
Si       1.73996748       1.02215189      -1.12195027       0.00000000
Si      -1.28534616       1.44561044       1.33065985       0.00000000
Si       1.42250796      -1.31911926       1.32572069       0.00000000
Si      -1.64287908      -0.97925706      -1.57416594       0.00000000
Si       0.47537478       1.57239551      -3.00655652       0.00000000
Si      -2.68723098      -2.54383404      -0.12163976       0.00000000
Si      -2.65160475       0.06541575       2.69853311       0.00000000
Si       0.07200180      -2.65322139       2.70137330       0.00000000
Si       2.75599107      -2.61801870      -0.27249192       0.00000000
Si       0.07485255       2.77070420       2.70840450       0.00000000
