10
Lattice="16.28999089631971 0.0 0.0 0.0 16.28999089631971 0.0 0.0 0.0 34.63643526849801" Properties=species:S:1:pos:R:3:initial_magmoms:R:1 pbc="T T T"
Si      -2.11369266       1.00196858      -0.25364276       0.00000000
Si       1.71470169       1.24878977       1.03545681       0.00000000
Si       0.13255173      -1.90612126       1.41444890       0.00000000
Si       1.09711521       0.28715849      -2.13810834       0.00000000
Si      -0.10080252      -0.45595288       3.39655465       0.00000000
Si       1.97294706      -1.87735312      -2.26868778       0.00000000
Si      -1.57796343       2.51776122      -2.21084490       0.00000000
Si       0.92572812       1.71837834       3.17827571       0.00000000
Si      -2.79120028       1.80365649       1.88910687       0.00000000
Si       3.79149750       0.02449364       0.54147170       0.00000000
