10
Lattice="16.28999089631971 0.0 0.0 0.0 16.28999089631971 0.0 0.0 0.0 34.63643526849801" Properties=species:S:1:pos:R:3:initial_magmoms:R:1 pbc="T T T"
Si      -1.23743727      -0.66943755       1.86991828       0.00000000
Si      -0.29196567       2.36796327       0.15309313       0.00000000
Si       2.16984429      -0.27427473       1.02672842       0.00000000
Si      -1.31501025      -0.96668118      -1.83524718       0.00000000
Si       3.48249249       1.00789488      -0.47192169       0.00000000
Si       1.34615673      -3.39310016      -0.53496004       0.00000000
Si       2.21516307       1.32198237       2.79297979       0.00000000
Si       0.75984705       3.08649888       2.23457087       0.00000000
Si       2.43654417      -2.64799163       1.46900131       0.00000000
Si      -3.56560407      -0.44277849       1.60945214       0.00000000
