10
Lattice="16.28999089631971 0.0 0.0 0.0 16.28999089631971 0.0 0.0 0.0 34.63643526849801" Properties=species:S:1:pos:R:3:initial_magmoms:R:1 pbc="T T T"
Si      -1.35596331       1.35690813      -1.35937693       0.00000000
Si       1.35997065      -1.35492075      -1.35916912       0.00000000
Si      -1.36433637      -1.34136747       1.37866944       0.00000000
Si       1.35527913       1.35553977       1.37863480       0.00000000
Si      -2.71619460      -2.71067229       0.00436419       0.00000000
Si      -2.71393029       0.00017919      -2.71626004       0.00000000
Si       2.71516833      -2.71515204       0.00034636       0.00000000
Si       0.00104256      -2.71443528      -2.71632932       0.00000000
Si       2.71555929       2.71546155       0.00259773       0.00000000
Si       0.00053757       2.71528236      -2.71636395       0.00000000
