10
Lattice="16.28999089631971 0.0 0.0 0.0 16.28999089631971 0.0 0.0 0.0 34.63643526849801" Properties=species:S:1:pos:R:3:initial_magmoms:R:1 pbc="T T T"
Si       0.41174604      -1.63056384       1.65735435       0.00000000
Si      -1.10996802      -1.45433862      -1.53564185       0.00000000
Si       1.59716934       1.15341345      -1.51804653       0.00000000
Si      -1.03469193       1.66508235       1.56899676       0.00000000
Si       1.31644377       2.37952917       1.72614235       0.00000000
Si      -2.59906950      -2.72626508      -0.14190555       0.00000000
Si      -0.31824144      -0.48974256       3.76546753       0.00000000
Si      -2.42729145       2.94959772       0.01905005       0.00000000
Si      -2.37268737      -0.10124235      -2.99892815       0.00000000
Si       2.92866507       2.57831604      -0.15482495       0.00000000
