10
Lattice="16.28999089631971 0.0 0.0 0.0 16.28999089631971 0.0 0.0 0.0 34.63643526849801" Properties=species:S:1:pos:R:3:initial_magmoms:R:1 pbc="T T T"
Si       1.45531602      -1.76451651       0.55840892       0.00000000
Si      -1.83075165      -0.25343982       1.46481030       0.00000000
Si       0.92395251       2.16700983       0.21291029       0.00000000
Si      -1.05181272      -0.71853561      -2.08147774       0.00000000
Si      -1.66141710      -2.59680519       1.65011533       0.00000000
Si      -0.96169644       3.36774573      -0.53492541       0.00000000
Si       0.46672479      -2.46806532       2.55298380       0.00000000
Si       0.07055199       0.69217839      -3.55910353       0.00000000
Si      -3.57133815       0.75411297       0.26431079       0.00000000
Si       2.70119151       2.11124916      -1.40745233       0.00000000
