10
Lattice="16.28999089631971 0.0 0.0 0.0 16.28999089631971 0.0 0.0 0.0 34.63643526849801" Properties=species:S:1:pos:R:3:initial_magmoms:R:1 pbc="T T T"
Si       1.35233064      -1.35710361       1.35823393       0.00000000
Si      -1.36200690       1.35821133       1.35899593       0.00000000
Si       1.33175637       1.36357074      -1.38518802       0.00000000
Si      -1.36651923      -1.37660274      -1.37975702       0.00000000
Si       2.70803331      -2.70961344      -0.00207819       0.00000000
Si       2.71191033       2.71477737      -0.00460665       0.00000000
Si       2.71117728       0.00117288       2.71636395       0.00000000
Si      -0.00381186      -2.71432125       2.71646786       0.00000000
Si      -0.00327429       2.71559187       2.71619077       0.00000000
Si      -2.72595231      -2.70656721       0.00464128       0.00000000
