10
Lattice="16.28999089631971 0.0 0.0 0.0 16.28999089631971 0.0 0.0 0.0 34.63643526849801" Properties=species:S:1:pos:R:3:initial_magmoms:R:1 pbc="T T T"
Si       1.34324082       1.35739683       1.36498804       0.00000000
Si      -1.35816246       1.35523026      -1.35691775       0.00000000
Si       1.35516510      -1.36019871      -1.35639820       0.00000000
Si      -1.36181142      -1.35796698       1.36325622       0.00000000
Si       2.71075374       2.71570590       0.00273628       0.00000000
Si      -0.00097740       2.71265967      -2.71404331       0.00000000
Si       2.71389771      -0.00201996      -2.71393940       0.00000000
Si      -2.71578735      -0.00231318      -2.71411258       0.00000000
Si      -2.71891503       2.71179630       0.00290946       0.00000000
Si       2.71383255      -2.71691136       0.00516083       0.00000000
