10
Lattice="16.28999089631971 0.0 0.0 0.0 16.28999089631971 0.0 0.0 0.0 34.63643526849801" Properties=species:S:1:pos:R:3:initial_magmoms:R:1 pbc="T T T"
Si      -1.45059192      -1.43731557       1.16298824       0.00000000
Si      -0.63407196       2.26672092      -0.15423613       0.00000000
Si      -0.31166028      -0.91098567      -2.17849445       0.00000000
Si       1.86755076       0.00535941       1.48091625       0.00000000
Si       1.01626794       1.80076176       2.90433599       0.00000000
Si      -0.55004814      -3.51236835       0.47618198       0.00000000
Si      -2.28755583       2.40165099       1.50692823       0.00000000
Si      -3.46437801      -1.14644133       0.00471056       0.00000000
Si       0.97738371       3.42471186       1.10885146       0.00000000
Si      -1.98169479       0.62330427      -3.13671197       0.00000000
