10
Lattice="16.28999089631971 0.0 0.0 0.0 16.28999089631971 0.0 0.0 0.0 34.63643526849801" Properties=species:S:1:pos:R:3:initial_magmoms:R:1 pbc="T T T"
Si      -1.37207412       1.52526528      -1.28674429       0.00000000
Si       0.69989985      -1.81374489      -1.45071327       0.00000000
Si      -1.35149985      -1.35588186       1.51107910       0.00000000
Si       1.38906459       1.42374600       1.41245180       0.00000000
Si       2.78317908      -0.95439852      -2.27835135       0.00000000
Si      -3.25501893       0.21177000      -2.12023593       0.00000000
Si       3.31700238       2.16678177       0.02251370       0.00000000
Si      -3.26684547      -2.24676567       0.28159927       0.00000000
Si      -2.67524154       0.00747711       2.94557905       0.00000000
Si      -2.74571208       2.88108198       0.13418163       0.00000000
