10
Lattice="16.28999089631971 0.0 0.0 0.0 16.28999089631971 0.0 0.0 0.0 34.63643526849801" Properties=species:S:1:pos:R:3:initial_magmoms:R:1 pbc="T T T"
Si      -1.05426437      -2.02968091      -0.46087267       0.00000000
Si      -0.96351278       0.24843879       2.15469921       0.00000000
Si      -0.33012337       1.76229618      -1.57647823       0.00000000
Si       2.36027439      -0.49731319      -0.06903045       0.00000000
Si       1.43749476       3.16346424      -0.79733119       0.00000000
Si      -0.91167962      -3.04741495       1.69912592       0.00000000
Si       0.45115155      -3.00698317      -1.96239761       0.00000000
Si       3.38680503       1.67701803      -0.28730939       0.00000000
Si      -2.42824346       2.05217673       2.11659911       0.00000000
Si       2.59362864      -1.94748157      -2.05113621       0.00000000
