10
Lattice="16.28999089631971 0.0 0.0 0.0 16.28999089631971 0.0 0.0 0.0 34.63643526849801" Properties=species:S:1:pos:R:3:initial_magmoms:R:1 pbc="T T T"
Si       1.30121262      -1.22820084       1.51842753       0.00000000
Si      -1.34324082      -1.35739683      -1.36498804       0.00000000
Si       1.36751292       1.35830907      -1.36225176       0.00000000
Si      -1.33722981       1.36878354       1.42768002       0.00000000
Si       0.54248958       2.37970836       2.48294889       0.00000000
Si       2.25707724       0.64189116       2.77760121       0.00000000
Si      -2.70505224      -2.71536381      -0.00173182       0.00000000
Si       2.71984356      -2.70255987       0.03110354       0.00000000
Si      -2.70140328      -0.00216657      -2.72190579       0.00000000
Si      -2.70607851       2.71720458       0.02244442       0.00000000
