10
Lattice="16.28999089631971 0.0 0.0 0.0 16.28999089631971 0.0 0.0 0.0 34.63643526849801" Properties=species:S:1:pos:R:3:initial_magmoms:R:1 pbc="T T T"
Si      -0.74007099       0.53664147       2.16238850       0.00000000
Si      -1.76761813      -1.40116806      -0.77914705       0.00000000
Si      -0.06540435       2.26641141      -1.01245821       0.00000000
Si       1.94931027      -1.48644621       0.51002179       0.00000000
Si      -1.43749476      -3.16346424       0.79733119       0.00000000
Si       0.65484171       2.41077339       2.67549294       0.00000000
Si       2.73828384      -1.95603478      -1.63279711       0.00000000
Si      -3.08192481       0.94413582       2.01999803       0.00000000
Si       1.95559821       2.33346105      -2.28908865       0.00000000
Si      -1.09011051      -2.20285597      -2.92189668       0.00000000
