10
Lattice="16.28999089631971 0.0 0.0 0.0 16.28999089631971 0.0 0.0 0.0 34.63643526849801" Properties=species:S:1:pos:R:3:initial_magmoms:R:1 pbc="T T T"
Si      -1.87194906       0.13435992      -1.54537470       0.00000000
Si       1.25530740       2.08717973      -0.09109388       0.00000000
Si       1.10827386      -1.83760974      -1.15571458       0.00000000
Si      -2.43190152      -2.13806250      -0.80966176       0.00000000
Si      -1.89465732       1.25035917       2.79713617       0.00000000
Si      -0.66805290      -3.18484161      -1.97597510       0.00000000
Si       1.67264091       2.54324923      -2.45728327       0.00000000
Si      -1.04764248      -0.15918588      -3.76927754       0.00000000
Si       2.21614047      -3.26342457       0.44611754       0.00000000
Si       2.43701658      -1.13340933      -2.96044705       0.00000000
