10
Lattice="16.28999089631971 0.0 0.0 0.0 16.28999089631971 0.0 0.0 0.0 34.63643526849801" Properties=species:S:1:pos:R:3:initial_magmoms:R:1 pbc="T T T"
Si       1.35746199       1.35563142       1.35736802       0.00000000
Si       1.35684297      -1.35695073      -1.35698702       0.00000000
Si      -1.35708732       1.35805211      -1.35660602       0.00000000
Si      -1.35747828      -1.35859602       1.35726411       0.00000000
Si      -2.71342530      -0.00002488      -2.71501313       0.00000000
Si       2.71437012      -2.71411950       0.00013855       0.00000000
Si       2.71567332      -0.00082452       2.71310813       0.00000000
Si      -0.00136836      -2.71490142      -2.71393940       0.00000000
Si      -0.00371412      -2.71188777       2.71722987       0.00000000
Si      -0.00231318       2.71751126      -2.71168803       0.00000000
