10
Lattice="16.28999089631971 0.0 0.0 0.0 16.28999089631971 0.0 0.0 0.0 34.63643526849801" Properties=species:S:1:pos:R:3:initial_magmoms:R:1 pbc="T T T"
Si       0.79335558       1.79614029      -1.31424563       0.00000000
Si       1.47036798      -1.88200229      -0.15690314       0.00000000
Si      -1.85380200      -0.81403411      -1.40433505       0.00000000
Si       0.92709648       0.73326666       2.23560996       0.00000000
Si       2.02641084       0.38185063      -2.76544381       0.00000000
Si      -1.31134500       1.04070783       3.05542021       0.00000000
Si       2.57419467       2.64251982       0.03034153       0.00000000
Si      -0.68901813      -2.32875554      -2.78217322       0.00000000
Si       3.32623881      -0.98940803      -1.36128194       0.00000000
Si      -2.87347455      -2.67149714      -0.27563691       0.00000000
