10
Lattice="16.28999089631971 0.0 0.0 0.0 16.28999089631971 0.0 0.0 0.0 34.63643526849801" Properties=species:S:1:pos:R:3:initial_magmoms:R:1 pbc="T T T"
Si      -1.21037958       0.81725301      -1.86319880       0.00000000
Si       0.23226282       1.03931829       2.12532749       0.00000000
Si      -0.59825025      -2.32874347       0.23462734       0.00000000
Si       2.25776142       0.35137530      -0.78610897       0.00000000
Si      -0.76147605      -0.97945254      -3.35880091       0.00000000
Si      -1.69947054      -2.62914247      -1.87480202       0.00000000
Si       1.53015228      -3.31404479       0.50385651       0.00000000
Si       2.54247804       1.17015957       2.53331029       0.00000000
Si      -1.08038538      -0.24285132       3.62397761       0.00000000
Si       3.09272166       2.15717067       0.48272827       0.00000000
