10
Lattice="16.28999089631971 0.0 0.0 0.0 16.28999089631971 0.0 0.0 0.0 34.63643526849801" Properties=species:S:1:pos:R:3:initial_magmoms:R:1 pbc="T T T"
Si       0.14651226       2.25520389      -0.46308940       0.00000000
Si       1.21037958      -0.81725301       1.86319880       0.00000000
Si      -2.31057360      -0.11826540      -0.52896794       0.00000000
Si       0.44890353      -1.79670555      -1.49560211       0.00000000
Si      -1.58058612      -1.25908668      -2.63708111       0.00000000
Si      -2.56588677      -2.22209935       0.48238190       0.00000000
Si      -0.48909096      -3.44639548      -0.01160321       0.00000000
Si       3.46814100      -0.46587771       1.07708983       0.00000000
Si      -1.54877175       3.27204198       0.82088397       0.00000000
Si      -0.67588839       2.75100633      -2.56829311       0.00000000
