10
Lattice="16.28999089631971 0.0 0.0 0.0 16.28999089631971 0.0 0.0 0.0 34.63643526849801" Properties=species:S:1:pos:R:3:initial_magmoms:R:1 pbc="T T T"
Si       1.03959522       0.27761418       2.08355593       0.00000000
Si       0.94213215      -2.04229685      -0.67870133       0.00000000
Si      -2.19271545      -0.73341001       0.56353512       0.00000000
Si       0.00053757       2.17181538      -1.11394302       0.00000000
Si      -3.21903432       1.30953681       0.16670526       0.00000000
Si      -2.23044309       2.01308562      -1.82786962       0.00000000
Si       3.15314127      -0.64029474       1.60034275       0.00000000
Si       3.17728305      -1.57317091      -0.64545033       0.00000000
Si      -0.31356621      -1.17423370       3.56208227       0.00000000
Si       0.35886870       3.68313642       0.69362964       0.00000000
