10
Lattice="16.28999089631971 0.0 0.0 0.0 16.28999089631971 0.0 0.0 0.0 34.63643526849801" Properties=species:S:1:pos:R:3:initial_magmoms:R:1 pbc="T T T"
Si       1.35148356      -1.35166275       1.33099929       0.00000000
Si       0.99849555       1.75677876      -1.16627766       0.00000000
Si      -1.38478032       1.33628499       1.32459154       0.00000000
Si      -1.06095141      -1.76604777      -1.14705824       0.00000000
Si       2.64065787      -2.67110714      -0.11602866       0.00000000
Si      -1.45860660       0.92745486      -3.38381332       0.00000000
Si       2.70008379      -0.01179396       2.68291553       0.00000000
Si      -0.02003670       2.70992295       2.67328660       0.00000000
Si      -0.01756062      -2.72576335       2.67155477       0.00000000
Si      -2.72606634      -0.01749546       2.68329653       0.00000000
