10
Lattice="16.28999089631971 0.0 0.0 0.0 16.28999089631971 0.0 0.0 0.0 34.63643526849801" Properties=species:S:1:pos:R:3:initial_magmoms:R:1 pbc="T T T"
Si      -1.33149573      -1.42490259      -1.36322158       0.00000000
Si       1.45420830       1.34311050      -1.39830831       0.00000000
Si      -0.73819764       2.01313449       1.21418092       0.00000000
Si      -1.61222130      -0.19878687       1.88096730       0.00000000
Si      -2.58173694       0.01734885      -2.84413784       0.00000000
Si      -2.92866507      -2.57831604       0.15482495       0.00000000
Si       0.13388751      -2.69656515      -2.83662172       0.00000000
Si      -2.68988625       2.86811514       0.00010391       0.00000000
Si       0.12779505       2.74901895      -2.82924416       0.00000000
Si       2.83002912       0.01503567      -2.85664160       0.00000000
