10
Lattice="16.28999089631971 0.0 0.0 0.0 16.28999089631971 0.0 0.0 0.0 34.63643526849801" Properties=species:S:1:pos:R:3:initial_magmoms:R:1 pbc="T T T"
Si      -1.17758129      -2.00526709       0.47053624       0.00000000
Si      -1.19895540       2.07676975      -0.25495894       0.00000000
Si       1.80713278       0.50407450       1.51537953       0.00000000
Si       0.79997095      -0.21669935      -2.27260170       0.00000000
Si       0.59992975       3.25448788      -1.01907377       0.00000000
Si       2.14459642       2.73120421       0.71631652       0.00000000
Si      -2.88620260      -1.75045891      -1.12880206       0.00000000
Si       1.22851198       2.20006876      -3.02268876       0.00000000
Si      -3.87298564       0.37857308      -0.65674182       0.00000000
Si       3.50241679      -1.19055532       1.46415221       0.00000000
