10
Lattice="16.28999089631971 0.0 0.0 0.0 16.28999089631971 0.0 0.0 0.0 34.63643526849801" Properties=species:S:1:pos:R:3:initial_magmoms:R:1 pbc="T T T"
Si       1.35847197      -1.35604476      -1.36176685       0.00000000
Si      -1.35690813       1.36120869      -1.36145512       0.00000000
Si       1.35884664       1.36029645       1.37562143       0.00000000
Si      -1.36583505      -1.34102538       1.39037656       0.00000000
Si       2.71542897      -2.71137276      -0.00256310       0.00000000
Si      -2.71508688      -2.71277370      -0.00055418       0.00000000
Si       2.71430496       2.71857294      -0.00079664       0.00000000
Si       0.00027693      -2.71321353      -2.72007005       0.00000000
Si      -2.71502172       0.00211770      -2.71965442       0.00000000
Si       2.71547784       0.00179190      -2.72017396       0.00000000
