10
Lattice="16.28999089631971 0.0 0.0 0.0 16.28999089631971 0.0 0.0 0.0 34.63643526849801" Properties=species:S:1:pos:R:3:initial_magmoms:R:1 pbc="T T T"
Si       1.01278188      -2.10471687      -0.30719072       0.00000000
Si      -0.08900856       1.34496756      -1.93454990       0.00000000
Si      -1.98254187      -0.49868577       1.20898545       0.00000000
Si       0.79136820       1.88245611       1.51489462       0.00000000
Si      -0.76432680       2.88406305      -0.23192570       0.00000000
Si       2.35913409       0.22198383       2.28929647       0.00000000
Si       2.09557818      -2.07256041       1.79229798       0.00000000
Si       2.26755171       1.78416225      -1.96482216       0.00000000
Si      -3.85009263      -0.50404518      -0.27193081       0.00000000
Si       2.48689656      -2.17038186      -2.11947393       0.00000000
