10
Lattice="16.28999089631971 0.0 0.0 0.0 16.28999089631971 0.0 0.0 0.0 34.63643526849801" Properties=species:S:1:pos:R:3:initial_magmoms:R:1 pbc="T T T"
Si      -1.33348311       1.29889944       1.59821261       0.00000000
Si      -0.76773141      -1.93288995      -1.31826489       0.00000000
Si       0.89498889       1.95812057      -1.20178249       0.00000000
Si       1.38784284      -1.37437101       1.58507500       0.00000000
Si      -2.69566920      -2.67592572       0.07167322       0.00000000
Si      -2.75599107       2.61801870       0.27249192       0.00000000
Si       2.68558569       2.73511122       0.18157122       0.00000000
Si      -1.01602359       3.64017059      -0.84945836       0.00000000
Si       2.78049123      -2.73929382       0.17867215       0.00000000
Si       1.04229936      -3.65915754      -1.08841598       0.00000000
