10
Lattice="16.28999089631971 0.0 0.0 0.0 16.28999089631971 0.0 0.0 0.0 34.63643526849801" Properties=species:S:1:pos:R:3:initial_magmoms:R:1 pbc="T T T"
Si       1.35943308       1.36414089       1.33866433       0.00000000
Si      -1.35376416       1.35329175      -1.35996575       0.00000000
Si       1.36125756      -1.35863487      -1.35847639       0.00000000
Si      -1.36751292      -1.35830907       1.36225176       0.00000000
Si       2.63893113       0.01317861       2.73042635       0.00000000
Si      -2.71244790       2.71081673       0.00374074       0.00000000
Si      -2.71075374      -2.71570590      -0.00273628       0.00000000
Si      -2.71173114      -0.00304623      -2.71677959       0.00000000
Si       0.00371412       2.71188777      -2.71722987       0.00000000
Si       2.71938744       2.71106325      -0.00412174       0.00000000
