10
Lattice="16.28999089631971 0.0 0.0 0.0 16.28999089631971 0.0 0.0 0.0 34.63643526849801" Properties=species:S:1:pos:R:3:initial_magmoms:R:1 pbc="T T T"
Si       0.77695155       1.92660201       1.15661513       0.00000000
Si      -0.27932463       1.04407497      -2.12667831       0.00000000
Si       1.68731820      -1.77901461      -0.33780934       0.00000000
Si      -2.23094808      -1.07413002       0.38266355       0.00000000
Si      -1.34110683      -3.05276229       1.42826884       0.00000000
Si      -1.15921269      -0.75364056      -3.36018637       0.00000000
Si      -0.82259613       3.65934392       0.26583479       0.00000000
Si      -2.90857950      -1.48323708      -1.95075976       0.00000000
Si       0.48360123      -3.87301266      -0.00547256       0.00000000
Si      -1.74969261       2.92607726      -1.96977517       0.00000000
