10
Lattice="16.28999089631971 0.0 0.0 0.0 16.28999089631971 0.0 0.0 0.0 34.63643526849801" Properties=species:S:1:pos:R:3:initial_magmoms:R:1 pbc="T T T"
Si      -1.61145567      -1.15799094      -1.26308759       0.00000000
Si       2.10838212      -0.03660363      -1.06884635       0.00000000
Si      -1.01167416       2.18113326       0.15690314       0.00000000
Si       0.03888423      -1.62395010       1.79548453       0.00000000
Si      -3.26493954      -1.02306087       0.39807677       0.00000000
Si       0.89016705      -3.41935245       0.37206480       0.00000000
Si       2.42255106       2.22876522      -1.40152950       0.00000000
Si       0.29414853       3.21406654      -1.67075866       0.00000000
Si       0.07871328       2.92624179       2.16086449       0.00000000
Si      -0.97738371      -3.42471186      -1.10885146       0.00000000
