10
Lattice="16.28999089631971 0.0 0.0 0.0 16.28999089631971 0.0 0.0 0.0 34.63643526849801" Properties=species:S:1:pos:R:3:initial_magmoms:R:1 pbc="T T T"
Si      -1.11658176      -1.71831385       1.21016136       0.00000000
Si       1.74178449       1.17246135       1.18933099       0.00000000
Si      -1.78836507       1.77044118       0.03624359       0.00000000
Si       1.62722017      -1.20599335      -1.50012879       0.00000000
Si      -1.58856822       0.02945884      -2.62654093       0.00000000
Si      -2.41026840      -0.24126697       2.58591787       0.00000000
Si       0.32618249       2.50171557       2.58758735       0.00000000
Si      -0.02151909      -1.72486243      -3.19537542       0.00000000
Si      -2.52195264      -2.91460258      -0.37880821       0.00000000
Si       0.31461561      -2.94840433       2.61721537       0.00000000
