10
Lattice="16.28999089631971 0.0 0.0 0.0 16.28999089631971 0.0 0.0 0.0 34.63643526849801" Properties=species:S:1:pos:R:3:initial_magmoms:R:1 pbc="T T T"
Si       0.02467935       2.14856792       0.97470447       0.00000000
Si      -0.38711556       0.89078444      -2.20021151       0.00000000
Si      -2.03377392      -0.90442962       0.92181460       0.00000000
Si       2.15335459      -1.09269315       0.31321746       0.00000000
Si      -3.63332160       0.82831229       0.03103426       0.00000000
Si      -2.32109694       2.74755122       1.12554623       0.00000000
Si       1.88044171       3.32504801      -0.05351332       0.00000000
Si      -1.66687425      -1.03248531       3.33566376       0.00000000
Si      -1.23417927      -0.89436240      -3.56585764       0.00000000
Si       2.74753560      -2.05318413      -1.89489116       0.00000000
