10
Lattice="16.28999089631971 0.0 0.0 0.0 16.28999089631971 0.0 0.0 0.0 34.63643526849801" Properties=species:S:1:pos:R:3:initial_magmoms:R:1 pbc="T T T"
Si      -2.24057547      -0.72915899      -0.31356382       0.00000000
Si      -0.39008034       1.43824899      -1.90299609       0.00000000
Si       1.56704913      -1.75432127      -0.56883449       0.00000000
Si       1.58856822      -0.02945884       2.62654093       0.00000000
Si      -0.19979685       1.74098235       2.66278452       0.00000000
Si       0.07050312      -3.58868930       0.01641768       0.00000000
Si       3.21578839      -1.23545219       1.12641214       0.00000000
Si      -2.50362639       2.35615791      -1.41978291       0.00000000
Si      -0.93338442      -2.94406142       2.24773272       0.00000000
Si      -3.85678782       0.90431003       0.05874343       0.00000000
