10
Lattice="16.28999089631971 0.0 0.0 0.0 16.28999089631971 0.0 0.0 0.0 34.63643526849801" Properties=species:S:1:pos:R:3:initial_magmoms:R:1 pbc="T T T"
Si       1.35777150       1.36060596       1.35096028       0.00000000
Si      -1.35695700       1.35532800      -1.35920375       0.00000000
Si       1.35746199      -1.35855342      -1.36048530       0.00000000
Si      -1.37902995      -1.36363590       1.36554222       0.00000000
Si       2.71375846       2.71292031      -0.00017318       0.00000000
Si      -2.71542897       2.71137276       0.00256310       0.00000000
Si      -2.71389771      -2.71379997      -0.00318655       0.00000000
Si       0.00004887       2.71316466      -2.71761087       0.00000000
Si       2.71482801      -0.00128691      -2.71733377       0.00000000
Si      -2.71515204      -0.00184077      -2.71750696       0.00000000
