10
Lattice="16.28999089631971 0.0 0.0 0.0 16.28999089631971 0.0 0.0 0.0 34.63643526849801" Properties=species:S:1:pos:R:3:initial_magmoms:R:1 pbc="T T T"
Si      -1.33486776      -1.35016407      -1.36872878       0.00000000
Si       1.37034738      -1.35594702       1.35549765       0.00000000
Si       1.37902995       1.36363590      -1.36554222       0.00000000
Si      -1.37582082       1.32807483       1.45833329       0.00000000
Si       2.07185994       0.57340800       2.61099986       0.00000000
Si       0.41026365       2.38013190       2.64213803       0.00000000
Si      -2.69614161      -2.71160082       0.02001987       0.00000000
Si      -2.69304651       0.00346977      -2.72571580       0.00000000
Si      -2.70223407       2.73398328       0.02739744       0.00000000
Si       0.02028105      -2.71178001      -2.72536943       0.00000000
