10
Lattice="16.28999089631971 0.0 0.0 0.0 16.28999089631971 0.0 0.0 0.0 34.63643526849801" Properties=species:S:1:pos:R:3:initial_magmoms:R:1 pbc="T T T"
Si       0.00664632      -0.44188254       2.30363596       0.00000000
Si      -0.70151256      -1.92935502      -1.25550221       0.00000000
Si       1.95173748       0.81098136      -1.18058356       0.00000000
Si      -1.66159629       1.80672390       0.03113817       0.00000000
Si      -2.07185994      -0.57340800      -2.61099986       0.00000000
Si       0.66494151       2.15083386      -2.62558181       0.00000000
Si       2.21634802      -0.92429460       2.68429060       0.00000000
Si      -0.22265172       1.72318878       3.18551473       0.00000000
Si      -3.44768076       0.75466683      -1.15266657       0.00000000
Si      -0.61595748       3.52224009      -1.21948029       0.00000000
