10
Lattice="16.28999089631971 0.0 0.0 0.0 16.28999089631971 0.0 0.0 0.0 34.63643526849801" Properties=species:S:1:pos:R:3:initial_magmoms:R:1 pbc="T T T"
Si       0.72857025       0.74934000       2.09547087       0.00000000
Si      -1.81613952      -1.46971638       0.24865511       0.00000000
Si      -0.60028650       1.78574238      -1.43006994       0.00000000
Si       1.70364078      -1.72519245      -0.15146522       0.00000000
Si      -0.90259632      -2.57281002       2.14403118       0.00000000
Si      -0.97339266       0.39903984      -3.35270490       0.00000000
Si       0.93936285      -1.33970589       3.18883983       0.00000000
Si       1.39453803      -2.56922622      -2.27987535       0.00000000
Si      -0.68776380      -2.03302458      -3.14703363       0.00000000
Si      -3.72869955      -0.31125303       0.95368014       0.00000000
