10
Lattice="16.28999089631971 0.0 0.0 0.0 16.28999089631971 0.0 0.0 0.0 34.63643526849801" Properties=species:S:1:pos:R:3:initial_magmoms:R:1 pbc="T T T"
Si      -1.73819187      -0.91986372      -1.26708814       0.00000000
Si       1.31637861      -1.37986074       1.42450732       0.00000000
Si       1.19048949       1.38175038      -1.54722917       0.00000000
Si      -1.39264839       1.36492281       1.40640285       0.00000000
Si       2.59586037       2.57803911       0.04174039       0.00000000
Si      -2.69692353      -2.67672393       0.06040944       0.00000000
Si       2.67981903      -0.00979029       2.79169478       0.00000000
Si       2.62319499      -2.85718455       0.07412894       0.00000000
Si      -0.04111596       2.70816363       2.79882989       0.00000000
Si      -0.04004082      -2.72383461       2.80004216       0.00000000
