10
Lattice="16.28999089631971 0.0 0.0 0.0 16.28999089631971 0.0 0.0 0.0 34.63643526849801" Properties=species:S:1:pos:R:3:initial_magmoms:R:1 pbc="T T T"
Si       0.93069657       1.78000830      -1.20988600       0.00000000
Si      -1.68399504      -0.94770333      -1.36973323       0.00000000
Si      -1.70900019       0.73930536       1.62559272       0.00000000
Si       1.95701611      -1.86562854      -0.07879793       0.00000000
Si       2.83261013       1.23155658       1.19665487       0.00000000
Si      -0.17417268       0.72866799       3.47666877       0.00000000
Si       2.31387300       0.40456215      -2.74566639       0.00000000
Si      -0.40309605      -2.31910956      -2.77583475       0.00000000
Si      -2.91271716      -1.35469269       1.95792951       0.00000000
Si      -2.72963385      -2.66321952      -0.11911477       0.00000000
