10
Lattice="16.28999089631971 0.0 0.0 0.0 16.28999089631971 0.0 0.0 0.0 34.63643526849801" Properties=species:S:1:pos:R:3:initial_magmoms:R:1 pbc="T T T"
Si       1.74765866      -0.23506470       1.45649755       0.00000000
Si      -1.07509113      -2.02240350      -0.32980832       0.00000000
Si      -1.29443598       1.93214061      -0.17515655       0.00000000
Si       0.83730600      -0.38669202      -2.21770292       0.00000000
Si      -0.02059056       1.87556544      -2.20997899       0.00000000
Si      -1.13710716      -1.59985719      -2.65138597       0.00000000
Si      -2.54920581      -1.95673851       1.48247489       0.00000000
Si       0.67712643      -3.49979247       0.23913008       0.00000000
Si       0.99970101       0.78670926       3.42069626       0.00000000
Si       1.87659401      -2.53547334       2.00624736       0.00000000
