10
Lattice="16.28999089631971 0.0 0.0 0.0 16.28999089631971 0.0 0.0 0.0 34.63643526849801" Properties=species:S:1:pos:R:3:initial_magmoms:R:1 pbc="T T T"
Si      -1.35146727       1.35675338       1.36121267       0.00000000
Si      -1.36099692      -1.35581155      -1.35728836       0.00000000
Si       1.36506942      -1.35988682       1.36038139       0.00000000
Si       1.36625859       1.38019468      -1.36787326       0.00000000
Si       2.65160475      -0.06541575      -2.69853311       0.00000000
Si      -2.70925506       2.70748759       0.00187037       0.00000000
Si      -2.64767723       0.04608604      -2.77144284       0.00000000
Si      -2.70875496      -2.71361982       0.00273628       0.00000000
Si      -2.70895044      -0.00227571       2.71819969       0.00000000
Si       0.00560376       2.71232572       2.71823432       0.00000000
