10
Lattice="16.28999089631971 0.0 0.0 0.0 16.28999089631971 0.0 0.0 0.0 34.63643526849801" Properties=species:S:1:pos:R:3:initial_magmoms:R:1 pbc="T T T"
Si       0.54907074       2.09727953       0.82988945       0.00000000
Si      -1.91326050      -0.16635348       1.37783816       0.00000000
Si       1.49527539      -1.55061252       1.01235430       0.00000000
Si      -0.36689967       0.12805569      -2.41384916       0.00000000
Si      -0.84701484       0.28263543       3.44501105       0.00000000
Si       0.68944167      -1.46680047       3.22087855       0.00000000
Si       0.80444907      -3.53162313      -0.02237515       0.00000000
Si      -1.18565136       3.49906661       0.08787269       0.00000000
Si      -2.22742944      -2.43172233       1.71052131       0.00000000
Si       1.66687425       1.03248531      -3.33566376       0.00000000
