10
Lattice="16.28999089631971 0.0 0.0 0.0 16.28999089631971 0.0 0.0 0.0 34.63643526849801" Properties=species:S:1:pos:R:3:initial_magmoms:R:1 pbc="T T T"
Si      -0.75484602       0.77882490       2.12789059       0.00000000
Si       1.36117611       1.96652880      -0.23646308       0.00000000
Si       1.56776589      -1.66047228       0.77440185       0.00000000
Si      -0.79136820      -1.88245611      -1.51489462       0.00000000
Si      -1.55569500       1.00160694      -1.74682032       0.00000000
Si      -0.88037676      -0.53748855      -3.44944452       0.00000000
Si      -2.77391007      -2.38114188      -0.30590917       0.00000000
Si      -0.17528040       3.71596470      -0.01233058       0.00000000
Si       2.16700983       1.88271675      -2.44498733       0.00000000
Si       1.47618351      -0.09829386      -3.47971678       0.00000000
