10
Lattice="16.28999089631971 0.0 0.0 0.0 16.28999089631971 0.0 0.0 0.0 34.63643526849801" Properties=species:S:1:pos:R:3:initial_magmoms:R:1 pbc="T T T"
Si       0.74007099      -0.53664147      -2.16238850       0.00000000
Si       0.43878744      -1.49918499       1.79233262       0.00000000
Si      -2.34185382       0.40749435      -0.14239046       0.00000000
Si       1.39491270       1.87413192       0.51310444       0.00000000
Si       0.59808735       3.19868811      -1.26440378       0.00000000
Si      -2.54663918       1.81379376       1.71834915       0.00000000
Si      -3.12566723      -1.64792898       0.75154179       0.00000000
Si      -1.02754714      -1.93780953      -2.94153555       0.00000000
Si       0.67466664       1.72976994      -3.17484670       0.00000000
Si       2.68938126      -2.02308768      -1.65236670       0.00000000
