10
Lattice="16.28999089631971 0.0 0.0 0.0 16.28999089631971 0.0 0.0 0.0 34.63643526849801" Properties=species:S:1:pos:R:3:initial_magmoms:R:1 pbc="T T T"
Si      -1.98698904      -1.02156219       0.61275352       0.00000000
Si       1.74058650      -1.00755279       1.20049952       0.00000000
Si       0.53831934       2.25896688       0.39915050       0.00000000
Si       0.20201229      -0.91007343      -2.16865770       0.00000000
Si       3.57133815      -0.75411297      -0.26431079       0.00000000
Si      -1.38269520      -3.22897122       1.11418547       0.00000000
Si       2.51952543      -1.47264858      -2.34578853       0.00000000
Si       2.60964171       2.61363276      -0.79923619       0.00000000
Si      -0.23895801       2.67455736       2.75605733       0.00000000
Si      -2.98984379      -0.13035258       2.49676883       0.00000000
