10
Lattice="16.28999089631971 0.0 0.0 0.0 16.28999089631971 0.0 0.0 0.0 34.63643526849801" Properties=species:S:1:pos:R:3:initial_magmoms:R:1 pbc="T T T"
Si      -0.82268410      -1.88698473       1.22750210       0.00000000
Si      -0.36494487      -0.30856518      -2.38347788       0.00000000
Si       1.91534562       0.89088381       1.22947984       0.00000000
Si      -1.87672040       1.91073555       0.14878228       0.00000000
Si       0.01182654       2.45853567      -2.40183520       0.00000000
Si      -2.11507470      -0.49241412       2.68110404       0.00000000
Si       0.59160393       2.25424278       2.66397978       0.00000000
Si      -3.53472542       0.74995902       1.31198041       0.00000000
Si      -2.51228357      -2.93871600      -0.06226963       0.00000000
Si      -0.80011267       3.66314859       1.27079420       0.00000000
