10
Lattice="16.28999089631971 0.0 0.0 0.0 16.28999089631971 0.0 0.0 0.0 34.63643526849801" Properties=species:S:1:pos:R:3:initial_magmoms:R:1 pbc="T T T"
Si       1.35019665      -1.34921925      -1.35674456       0.00000000
Si      -1.35767865      -1.35570267       1.35587865       0.00000000
Si       1.35615879       1.35798327       1.35560156       0.00000000
Si      -1.35665563       1.35622395      -1.36138585       0.00000000
Si      -2.70736281      -0.01726740      -2.71242579       0.00000000
Si       2.71453302       0.00047241       2.71276176       0.00000000
Si      -2.71509229       0.00076563       2.71238076       0.00000000
Si       0.00006516      -2.71463076       2.71286567       0.00000000
Si      -0.00006516       2.71524978       2.71245003       0.00000000
Si      -2.71471065      -2.71375110      -0.00228601       0.00000000
