10
Lattice="16.28999089631971 0.0 0.0 0.0 16.28999089631971 0.0 0.0 0.0 34.63643526849801" Properties=species:S:1:pos:R:3:initial_magmoms:R:1 pbc="T T T"
Si       1.35419747      -1.35658233       1.35972330       0.00000000
Si       1.35745547       1.35581670      -1.35729875       0.00000000
Si      -1.35757166      -1.35866745      -1.35736802       0.00000000
Si      -1.35864121       1.35553977       1.35979257       0.00000000
Si      -2.71462817       0.00322542       2.71092603       0.00000000
Si      -2.71459559       2.71187775       0.00038100       0.00000000
Si       2.71367942      -0.00144981      -2.71414722       0.00000000
Si      -0.00018408       2.71326240      -2.71473604       0.00000000
Si       2.71508036       2.71336014      -0.00010391       0.00000000
Si      -2.71470962      -0.00200367      -2.71411258       0.00000000
