10
Lattice="16.28999089631971 0.0 0.0 0.0 16.28999089631971 0.0 0.0 0.0 34.63643526849801" Properties=species:S:1:pos:R:3:initial_magmoms:R:1 pbc="T T T"
Si       1.35198692       1.34302905      -1.38137108       0.00000000
Si      -1.36098208      -1.37135736      -1.38130181       0.00000000
Si       1.38977972      -1.35493704       1.39432512       0.00000000
Si      -1.38317643       1.37544615       1.53578040       0.00000000
Si      -0.35685688      -2.27019069       2.66686846       0.00000000
Si      -2.31387300      -0.40456215       2.74566639       0.00000000
Si      -2.71858176       2.69192250      -0.00034636       0.00000000
Si       2.70806426       2.70583416       0.00315192       0.00000000
Si       2.70909053      -2.72673423      -0.02102433       0.00000000
Si      -2.71696905      -2.72367171      -0.03016835       0.00000000
