10
Lattice="16.28999089631971 0.0 0.0 0.0 16.28999089631971 0.0 0.0 0.0 34.63643526849801" Properties=species:S:1:pos:R:3:initial_magmoms:R:1 pbc="T T T"
Si      -1.74663661      -0.91525365       1.27254334       0.00000000
Si       1.31931081      -1.37179719      -1.41534945       0.00000000
Si      -1.38977972       1.35493704      -1.39432512       0.00000000
Si       1.23033483       1.46504115       1.54790316       0.00000000
Si       0.20487933      -1.71817146       2.76859573       0.00000000
Si      -0.87104259       2.18193147       2.54799615       0.00000000
Si       2.27908503      -0.21890502       2.94274782       0.00000000
Si       2.66654268      -2.68872966      -0.00391392       0.00000000
Si       2.68713324       2.71235016       0.01406240       0.00000000
Si       2.68112223      -0.01383021      -2.77860566       0.00000000
