10
Lattice="16.28999089631971 0.0 0.0 0.0 16.28999089631971 0.0 0.0 0.0 34.63643526849801" Properties=species:S:1:pos:R:3:initial_magmoms:R:1 pbc="T T T"
Si      -0.50868783       2.16761256       0.91041921       0.00000000
Si       1.68344118      -0.99797427       1.41621536       0.00000000
Si      -2.40455061      -0.50976297       0.03144990       0.00000000
Si       0.77727735      -0.41559048      -2.35690683       0.00000000
Si      -1.20484098       1.53075501       3.02452449       0.00000000
Si      -1.58161239      -1.23634584       3.04288181       0.00000000
Si      -1.90386443       3.02933727      -0.70952777       0.00000000
Si       3.55299561       0.38169099       0.88025086       0.00000000
Si      -3.27862998       1.15196364      -1.38521573       0.00000000
Si       0.23895801      -2.67455736      -2.75605733       0.00000000
