10
Lattice="16.28999089631971 0.0 0.0 0.0 16.28999089631971 0.0 0.0 0.0 34.63643526849801" Properties=species:S:1:pos:R:3:initial_magmoms:R:1 pbc="T T T"
Si       1.33074999      -1.29194361      -1.41585167       0.00000000
Si      -1.34723871      -1.35773892       1.34290037       0.00000000
Si       1.36609115       1.36115982       1.34629475       0.00000000
Si      -1.43119737       1.23009048      -1.40705401       0.00000000
Si      -2.70877320       0.00133578       2.70473650       0.00000000
Si       0.00770361       2.71495836       2.70435550       0.00000000
Si       0.00788579      -2.71616202       2.70511750       0.00000000
Si       2.72246659      -2.70084942      -0.02266610       0.00000000
Si       2.72372092      -0.00022806       2.70553313       0.00000000
Si      -2.72488401       2.70713736      -0.03129750       0.00000000
