10
Lattice="16.28999089631971 0.0 0.0 0.0 16.28999089631971 0.0 0.0 0.0 34.63643526849801" Properties=species:S:1:pos:R:3:initial_magmoms:R:1 pbc="T T T"
Si       1.35400199      -1.35773892       1.35913448       0.00000000
Si      -1.35768130      -1.35674523      -1.35764511       0.00000000
Si       1.35680387       1.35824785      -1.35733338       0.00000000
Si      -1.35682032       1.36072925       1.36110876       0.00000000
Si       2.71475456      -2.71430496      -0.00069273       0.00000000
Si      -0.00050988      -2.71440270      -2.71532486       0.00000000
Si       2.71407038       0.00120546      -2.71567122       0.00000000
Si      -2.71519832       0.00042354      -2.71518631       0.00000000
Si      -2.71492139      -2.71578735      -0.00020782       0.00000000
Si      -0.00006027       2.71564467      -2.71546341       0.00000000
