10
Lattice="16.28999089631971 0.0 0.0 0.0 16.28999089631971 0.0 0.0 0.0 34.63643526849801" Properties=species:S:1:pos:R:3:initial_magmoms:R:1 pbc="T T T"
Si      -0.67066744       2.06461089      -0.89334344       0.00000000
Si       2.10137742      -0.71689032      -1.00009299       0.00000000
Si      -0.92602786       0.67432455       2.23862334       0.00000000
Si      -1.90191356       0.54845172      -2.40654087       0.00000000
Si      -2.83261013      -1.23155658      -1.19665487       0.00000000
Si      -0.87559402      -3.09718512      -1.27545281       0.00000000
Si       0.87104259      -2.18193147      -2.54799615       0.00000000
Si      -1.26484845       3.02510187       1.31476518       0.00000000
Si      -3.00678281      -0.50288859       2.28001390       0.00000000
Si       3.15012762      -2.40083649       0.39475167       0.00000000
