10
Lattice="16.28999089631971 0.0 0.0 0.0 16.28999089631971 0.0 0.0 0.0 34.63643526849801" Properties=species:S:1:pos:R:3:initial_magmoms:R:1 pbc="T T T"
Si       1.18663528      -0.06058251       2.05948359       0.00000000
Si      -2.08075495      -1.17721314       0.04139056       0.00000000
Si       0.92602786      -0.67432455      -2.23862334       0.00000000
Si      -0.33882060       2.35077732      -0.92385815       0.00000000
Si       0.25536041       1.39028634      -3.13196677       0.00000000
Si      -1.22285839      -3.43947060       0.03366663       0.00000000
Si      -0.31878064       0.91671975       3.56100854       0.00000000
Si       3.32911237       0.99891909       1.97074500       0.00000000
Si       1.57984330      -2.14200468       2.98746348       0.00000000
Si       1.08286798       3.90700893       0.30265334       0.00000000
