10
Lattice="10.86 0.0 0.0 0.0 10.86 0.0 0.0 0.0 10.86" Properties=species:S:1:pos:R:3:initial_magmoms:R:1 pbc="T T T"
Si       1.01571408       1.52295210      -1.59230406       0.00000000
Si      -1.69928592       1.52295210       1.12269594       0.00000000
Si      -1.69928592      -1.19204790      -1.59230406       0.00000000
Si       2.40322026      -2.37385482      -0.04298388       0.00000000
Si      -0.30056136      -2.61605454       2.49004596       0.00000000
Si       2.56527318       0.48307452       2.65357584       0.00000000
Si       2.37321408       2.88045210      -0.23480406       0.00000000
Si       2.37321408       0.16545210      -2.94980406       0.00000000
Si      -0.34178592       2.88045210       2.48019594       0.00000000
Si      -0.34178592      -2.54954790      -2.94980406       0.00000000
