10
Lattice="10.86 0.0 0.0 0.0 10.86 0.0 0.0 0.0 10.86" Properties=species:S:1:pos:R:3:initial_magmoms:R:1 pbc="T T T"
Si       1.16544090       1.03987758      -1.53087990       0.00000000
Si      -1.54955910       1.03987758       1.18412010       0.00000000
Si       1.16544090      -1.67512242       1.18412010       0.00000000
Si       2.52294090       2.39737758      -0.17337990       0.00000000
Si      -0.19205910       2.39737758       2.54162010       0.00000000
Si       2.52294090      -0.31762242       2.54162010       0.00000000
Si      -2.56527318      -0.48307452      -2.65357584       0.00000000
Si      -0.19205910       2.39737758      -2.88837990       0.00000000
Si      -2.90705910       2.39737758      -0.17337990       0.00000000
Si       2.52294090      -0.31762242      -2.88837990       0.00000000
