10
Lattice="10.86 0.0 0.0 0.0 10.86 0.0 0.0 0.0 10.86" Properties=species:S:1:pos:R:3:initial_magmoms:R:1 pbc="T T T"
Si       1.35750000       1.35750000       1.35750000       0.00000000
Si      -1.35750000      -1.35750000       1.35750000       0.00000000
Si      -1.35750000       1.35750000      -1.35750000       0.00000000
Si       1.35750000      -1.35750000      -1.35750000       0.00000000
Si      -2.68419018      -0.07364166       2.48602776       0.00000000
Si      -0.27466026       2.45332830       2.71982184       0.00000000
Si       2.54491068      -0.03022338      -2.79877404       0.00000000
Si       2.69778690       0.01228266       2.68042176       0.00000000
Si      -0.14536110      -2.67567594       2.71498914       0.00000000
Si       2.71500000       2.71500000       0.00000000       0.00000000
