10
Lattice="10.86 0.0 0.0 0.0 10.86 0.0 0.0 0.0 10.86" Properties=species:S:1:pos:R:3:initial_magmoms:R:1 pbc="T T T"
Si      -0.65667162      -1.78556862       1.37432214       0.00000000
Si      -1.08283974       1.61917170      -1.36232184       0.00000000
Si       1.63216026      -1.09582830      -1.36232184       0.00000000
Si       1.63216026       1.61917170       1.35267816       0.00000000
Si      -2.37951288      -0.06394368       2.43966642       0.00000000
Si      -2.40952992      -2.52696996      -0.23379408       0.00000000
Si      -2.44033974       0.26167170      -2.71982184       0.00000000
Si       0.27466026      -2.45332830      -2.71982184       0.00000000
Si       2.97244716      -2.44104564      -0.03940008       0.00000000
Si      -2.44033974       2.97667170      -0.00482184       0.00000000
