10
Lattice="10.86 0.0 0.0 0.0 10.86 0.0 0.0 0.0 10.86" Properties=species:S:1:pos:R:3:initial_magmoms:R:1 pbc="T T T"
Si       1.26093288      -0.84337674      -1.65453186       0.00000000
Si      -1.53043464       1.46285286      -0.87645630       0.00000000
Si       1.18456536       1.46285286       1.83854370       0.00000000
Si      -1.53043464      -1.25214714       1.83854370       0.00000000
Si      -0.30177768      -2.45312196      -2.04236418       0.00000000
Si       2.45955108      -2.47611258       0.25360272       0.00000000
Si      -0.11210778       2.49473748      -2.50446804       0.00000000
Si      -2.88793464       0.10535286      -2.23395630       0.00000000
Si       2.45225316       2.69407278       0.35565414       0.00000000
Si      -2.88793464      -2.60964714       0.48104370       0.00000000
