10
Lattice="16.28999089631971 0.0 0.0 0.0 16.28999089631971 0.0 0.0 0.0 34.31420841018396" Properties=species:S:1:pos:R:3:initial_magmoms:R:1 pbc="T T T"
Si      -2.00104179      -1.23922917      -0.00796090       0.00000000
Si       0.31173815       1.77472287      -1.63366606       0.00000000
Si      -0.36803445       1.26780087       2.17243375       0.00000000
Si       1.60478948      -2.03756949      -0.19538521       0.00000000
Si      -1.47529833      -2.60087769      -1.85904191       0.00000000
Si       1.99985456       3.09158855      -0.20454711       0.00000000
Si      -1.78505268       2.72802833      -1.75431489       0.00000000
Si      -2.58894789      -1.77991056       2.26394979       0.00000000
Si       2.71283528      -1.52865360      -2.32005356       0.00000000
Si      -1.35774969      -0.33438483       3.62801038       0.00000000
