10
Lattice="16.28999089631971 0.0 0.0 0.0 16.28999089631971 0.0 0.0 0.0 34.31420841018396" Properties=species:S:1:pos:R:3:initial_magmoms:R:1 pbc="T T T"
Si       1.86443937       0.85797280       1.14033041       0.00000000
Si      -1.36416044       1.30700502      -1.39600572       0.00000000
Si      -1.25000338      -1.36948175       1.47372745       0.00000000
Si       1.33276635      -1.40854517      -1.40314308       0.00000000
Si       1.10343573       1.35433887       3.28908734       0.00000000
Si       3.44624724      -1.05021404       1.02091690       0.00000000
Si       0.59929281      -2.58476462       2.65351922       0.00000000
Si      -2.90088152       2.43104760       0.01448060       0.00000000
Si      -2.67127378      -2.68802693       0.01509826       0.00000000
Si       0.00342090       2.66083434      -2.75416285       0.00000000
