10
Lattice="16.28999089631971 0.0 0.0 0.0 16.28999089631971 0.0 0.0 0.0 34.31420841018396" Properties=species:S:1:pos:R:3:initial_magmoms:R:1 pbc="T T T"
Si      -0.76100364       0.49636607       2.14875693       0.00000000
Si      -1.86443937      -0.85797280      -1.14033041       0.00000000
Si       1.01139723       1.86750026      -1.05646644       0.00000000
Si       1.58180787      -1.90818684      -0.11941351       0.00000000
Si       2.22475788       0.46091252      -2.52988506       0.00000000
Si      -0.53167302      -2.26651797      -2.54347349       0.00000000
Si       3.52937511      -0.88155127      -1.04812808       0.00000000
Si      -3.11444275      -2.22745455       0.33339704       0.00000000
Si      -3.10796584       1.19628710       2.03768178       0.00000000
Si       2.13078087       3.27034619       0.53770395       0.00000000
