10
Lattice="16.28999089631971 0.0 0.0 0.0 16.28999089631971 0.0 0.0 0.0 34.31420841018396" Properties=species:S:1:pos:R:3:initial_magmoms:R:1 pbc="T T T"
Si      -0.28442340      -1.16845305       1.99001931       0.00000000
Si       1.63504359       1.32535766       1.03302982       0.00000000
Si      -1.46047995       1.79947811      -0.44460945       0.00000000
Si       0.01306458      -1.62081006      -1.83817886       0.00000000
Si      -3.42593035       0.46339023      -0.36506907       0.00000000
Si       3.33024615       0.95967159      -0.47789425       0.00000000
Si      -1.66605975      -2.91948144       1.26386163       0.00000000
Si      -3.06199872      -1.83593580      -0.45095758       0.00000000
Si      -0.42368661       2.89700057      -2.34510294       0.00000000
Si      -1.45200915       3.13338476       1.51085544       0.00000000
