10
Lattice="16.28999089631971 0.0 0.0 0.0 16.28999089631971 0.0 0.0 0.0 34.31420841018396" Properties=species:S:1:pos:R:3:initial_magmoms:R:1 pbc="T T T"
Si       1.35306369      -1.35754344      -1.35956401       0.00000000
Si      -1.36195803       1.35959598      -1.35973558       0.00000000
Si      -1.34715042      -1.36681245       1.37692701       0.00000000
Si       1.36449927       1.34495127       1.38396143       0.00000000
Si      -0.12276144       2.60843625       2.73391745       0.00000000
Si       2.71023246      -2.71319724      -0.00360299       0.00000000
Si      -2.71298547       2.71283886      -0.00048040       0.00000000
Si       2.71104696       0.00205254      -2.71600543       0.00000000
Si       2.70980892       2.71733490       0.00538733       0.00000000
Si      -0.00379557      -2.71288773      -2.71624563       0.00000000
