10
Lattice="16.28999089631971 0.0 0.0 0.0 16.28999089631971 0.0 0.0 0.0 34.31420841018396" Properties=species:S:1:pos:R:3:initial_magmoms:R:1 pbc="T T T"
Si       1.70064342       0.73881666       1.45543796       0.00000000
Si      -1.24778142       1.46753352      -1.36265229       0.00000000
Si       1.48726071      -1.26348498      -1.34995603       0.00000000
Si      -1.75272255      -1.09522557       1.36903474       0.00000000
Si       0.44059563       2.38159800       2.58163091       0.00000000
Si       0.69113583      -0.56607750       3.46347225       0.00000000
Si      -2.59022403       0.10440261      -2.73439785       0.00000000
Si       0.12276144      -2.60843625      -2.73391745       0.00000000
Si      -2.76672618       2.59041951       0.14387956       0.00000000
Si      -0.47105793      -2.51330265       2.90552291       0.00000000
