10
Lattice="16.28999089631971 0.0 0.0 0.0 16.28999089631971 0.0 0.0 0.0 34.31420841018396" Properties=species:S:1:pos:R:3:initial_magmoms:R:1 pbc="T T T"
Si       1.16219376       1.94722515       0.55794934       0.00000000
Si      -0.48580038      -1.93787469       1.28410702       0.00000000
Si      -1.28166462       1.41807708      -1.53648817       0.00000000
Si       1.86875622      -1.34104167      -1.20569901       0.00000000
Si      -2.26017234      -0.27289008      -2.89666984       0.00000000
Si       1.33051833      -2.25945558       2.68790208       0.00000000
Si       1.99148508       1.69489305       2.73350568       0.00000000
Si       2.80854261      -2.46356928       0.80559512       0.00000000
Si       0.47105793       2.51330265      -2.90552291       0.00000000
Si      -2.62769103      -2.03765094       2.10037387       0.00000000
