10
Lattice="16.28999089631971 0.0 0.0 0.0 16.28999089631971 0.0 0.0 0.0 34.31420841018396" Properties=species:S:1:pos:R:3:initial_magmoms:R:1 pbc="T T T"
Si      -0.74668473      -0.92116692      -2.01335299       0.00000000
Si      -0.12139308       2.27810763      -0.80600689       0.00000000
Si       2.21897493      -0.61874307       0.86893919       0.00000000
Si      -1.72939527      -0.74722230       1.60113617       0.00000000
Si       1.52630784      -0.22025709       3.12705556       0.00000000
Si       1.46805480       3.29095467       0.69434840       0.00000000
Si      -2.96704431      -0.13752018      -2.37938286       0.00000000
Si       1.41164253       2.18126358       2.81417843       0.00000000
Si      -1.38816864      -3.15117018      -1.68524035       0.00000000
Si      -0.73871892      -0.70314156       3.70531892       0.00000000
