10
Lattice="16.28999089631971 0.0 0.0 0.0 16.28999089631971 0.0 0.0 0.0 34.31420841018396" Properties=species:S:1:pos:R:3:initial_magmoms:R:1 pbc="T T T"
Si      -0.99067635      -0.04408074      -2.10418275       0.00000000
Si      -0.33265809       1.79406657       1.46597243       0.00000000
Si      -0.58406166      -1.63212768       1.63376900       0.00000000
Si       2.26502676       0.48288447      -0.57826336       0.00000000
Si       1.52225163       1.20529710       2.74884414       0.00000000
Si       3.22742367       0.11199375       1.54812069       0.00000000
Si       0.17080065       3.59101647       0.11989391       0.00000000
Si      -1.91257632      -2.29040658      -2.15078147       0.00000000
Si       2.15036145       2.88440514      -0.89114049       0.00000000
Si      -2.65930992       1.62808776      -2.08201576       0.00000000
