10
Lattice="16.28999089631971 0.0 0.0 0.0 16.28999089631971 0.0 0.0 0.0 34.31420841018396" Properties=species:S:1:pos:R:3:initial_magmoms:R:1 pbc="T T T"
Si      -0.84856239      -0.27706032      -2.23666998       0.00000000
Si      -1.68640596       0.68470128       1.58737617       0.00000000
Si       1.12329324      -1.87639623       1.14582069       0.00000000
Si       1.75936887       2.04639867      -0.55510126       0.00000000
Si       1.43075070      -0.43960194      -3.05063778       0.00000000
Si      -0.00272043       1.79587476       2.92456185       0.00000000
Si       2.08441953      -2.86427070      -0.82433069       0.00000000
Si       0.93726144       3.37698216       1.33502934       0.00000000
Si       3.28566042      -1.02837141      -1.76776606       0.00000000
Si       2.61125442      -0.99772992       2.81196315       0.00000000
