10
Lattice="16.28999089631971 0.0 0.0 0.0 16.28999089631971 0.0 0.0 0.0 34.31420841018396" Properties=species:S:1:pos:R:3:initial_magmoms:R:1 pbc="T T T"
Si      -0.50345874      -1.79694990       1.34607852       0.00000000
Si       1.97956080      -0.70661133      -1.01103440       0.00000000
Si      -2.00797056       0.02572191      -1.19928225       0.00000000
Si       0.02300148       1.71823662       1.67007346       0.00000000
Si      -3.11603265       0.61994853       0.77694274       0.00000000
Si       2.04429726       2.45532654       0.75518752       0.00000000
Si      -1.94031819       2.73614985       0.82309538       0.00000000
Si       3.50805150       0.73280565       0.08331494       0.00000000
Si      -0.17080065      -3.59101647      -0.11989391       0.00000000
Si      -1.95836751       1.93696245      -2.53269882       0.00000000
