10
Lattice="16.28999089631971 0.0 0.0 0.0 16.28999089631971 0.0 0.0 0.0 34.31420841018396" Properties=species:S:1:pos:R:3:initial_magmoms:R:1 pbc="T T T"
Si       1.49727906      -1.25244036      -1.23167488       0.00000000
Si      -1.27707084       1.49009517      -1.24272407       0.00000000
Si       0.83641005       1.84842630       1.18133591       0.00000000
Si      -1.13288805      -1.49234319       1.47860007       0.00000000
Si       0.53862885       0.47677572       3.12612908       0.00000000
Si      -2.01054438       0.31387572       2.81393823       0.00000000
Si       0.10702530      -2.58439221      -2.59250852       0.00000000
Si      -2.60618823       0.12983130      -2.59710663       0.00000000
Si       2.82147687       0.13075983      -2.59405266       0.00000000
Si       0.10524969       2.84402223      -2.59367521       0.00000000
