10
Lattice="16.28999089631971 0.0 0.0 0.0 16.28999089631971 0.0 0.0 0.0 34.31420841018396" Properties=species:S:1:pos:R:3:initial_magmoms:R:1 pbc="T T T"
Si       2.05508124       1.29478851       0.11093790       0.00000000
Si      -0.87462639       1.88417375      -1.26489106       0.00000000
Si       0.97494021      -1.93157046       1.18981153       0.00000000
Si      -2.06101080       0.66395901       1.38063295       0.00000000
Si       0.89186121      -0.88197318      -2.97425430       0.00000000
Si      -0.52354431       2.03449461       2.66223301       0.00000000
Si       2.45962710       0.71105217      -2.25557712       0.00000000
Si      -3.19257936       1.47980219      -0.64575945       0.00000000
Si       1.10283300       3.15160091       1.40326796       0.00000000
Si       2.24802000      -0.77739138       2.78835839       0.00000000
