10
Lattice="16.28999089631971 0.0 0.0 0.0 16.28999089631971 0.0 0.0 0.0 34.31420841018396" Properties=species:S:1:pos:R:3:initial_magmoms:R:1 pbc="T T T"
Si       1.35676152       1.35558864       1.35819144       0.00000000
Si      -1.35762489       1.35759231      -1.35712770       0.00000000
Si      -1.35866745      -1.35716551       1.35753947       0.00000000
Si       1.35842310      -1.35815269      -1.35740221       0.00000000
Si      -2.71570590      -0.00035838       2.71332892       0.00000000
Si      -2.71560816       0.00014661      -2.71394657       0.00000000
Si      -2.71484253      -2.71479339       0.00027451       0.00000000
Si      -2.71489140       2.71489140       0.00092648       0.00000000
Si       2.71595025      -0.00063531      -2.71384363       0.00000000
Si       2.71513575       2.71494027       0.00027451       0.00000000
