10
Lattice="16.28999089631971 0.0 0.0 0.0 16.28999089631971 0.0 0.0 0.0 34.31420841018396" Properties=species:S:1:pos:R:3:initial_magmoms:R:1 pbc="T T T"
Si      -1.95396921       1.36226754      -0.22863570       0.00000000
Si       0.06032187      -0.35229731      -2.37722106       0.00000000
Si       0.28960362       2.13156279       1.17787018       0.00000000
Si       0.67691466      -1.54831954       1.80324697       0.00000000
Si       2.77873191      -0.44057771       1.40942258       0.00000000
Si       3.57899445       0.79708599      -0.99202432       0.00000000
Si       2.72155401       1.93870548       2.07916768       0.00000000
Si      -3.43199349       1.56638124       1.65367126       0.00000000
Si       1.27878129       0.96951564      -3.89342952       0.00000000
Si       0.08418672      -1.00548396       4.08864316       0.00000000
