10
Lattice="16.28999089631971 0.0 0.0 0.0 16.28999089631971 0.0 0.0 0.0 34.31420841018396" Properties=species:S:1:pos:R:3:initial_magmoms:R:1 pbc="T T T"
Si       0.54524259      -2.33168872      -0.04371633       0.00000000
Si       2.10181725       1.10774183      -0.39382439       0.00000000
Si      -0.59272794       0.54283558       2.28539619       0.00000000
Si      -0.67691466       1.54831954      -1.80324697       0.00000000
Si       3.27529998      -0.09198311       1.31399472       0.00000000
Si      -2.84747571      -0.12228545       2.34592648       0.00000000
Si       2.73595437      -2.35317523       0.96951419       0.00000000
Si      -0.38731104       3.67988233      -0.62537680       0.00000000
Si      -1.41441183      -3.39009889       0.84718396       0.00000000
Si       2.04463935       3.48702502       0.27592070       0.00000000
