10
Lattice="16.28999089631971 0.0 0.0 0.0 16.28999089631971 0.0 0.0 0.0 34.31420841018396" Properties=species:S:1:pos:R:3:initial_magmoms:R:1 pbc="T T T"
Si       0.36393163      -2.29932603      -0.08588851       0.00000000
Si       1.96545040       1.33608788      -0.07954038       0.00000000
Si      -1.48329639       0.50137036      -1.80719311       0.00000000
Si      -0.64122653      -0.07949520       2.31531819       0.00000000
Si       3.42593035      -0.46339023       0.36506907       0.00000000
Si      -2.73801735       0.87381026       2.19466937       0.00000000
Si       1.25813860      -2.60492643      -2.22016484       0.00000000
Si      -2.14962255       2.75287805      -1.32271053       0.00000000
Si      -0.11575674       0.76297473      -3.69420111       0.00000000
Si      -1.69219935      -3.38525001       0.13488923       0.00000000
