10
Lattice="16.28999089631971 0.0 0.0 0.0 16.28999089631971 0.0 0.0 0.0 34.31420841018396" Properties=species:S:1:pos:R:3:initial_magmoms:R:1 pbc="T T T"
Si      -2.25474777      -0.66512103       0.06053030       0.00000000
Si       0.98025075      -1.08710405       1.89685619       0.00000000
Si       0.16755894       2.26284390       0.80514904       0.00000000
Si       0.59272794      -0.54283558      -2.28539619       0.00000000
Si       2.46127239       2.55798612       0.30539663       0.00000000
Si      -0.75334734      -0.78526664       3.42812859       0.00000000
Si      -2.42017272      -1.81647251       2.15695803       0.00000000
Si       2.69454519       0.56490625      -2.67922058       0.00000000
Si       1.13797053      -2.87452430      -2.32911251       0.00000000
Si      -0.58481100       3.84921297      -0.77296229       0.00000000
