10
Lattice="16.28999089631971 0.0 0.0 0.0 16.28999089631971 0.0 0.0 0.0 34.31420841018396" Properties=species:S:1:pos:R:3:initial_magmoms:R:1 pbc="T T T"
Si      -1.35798327      -1.35744570      -1.35681887       0.00000000
Si       1.35762489      -1.35759231       1.35712770       0.00000000
Si      -1.35726651       1.35729909       1.35805419       0.00000000
Si       1.35873261       1.35731538      -1.35826007       0.00000000
Si       0.00019548       2.71363707       2.71507894       0.00000000
Si      -2.71467963       2.71471221      -0.00006863       0.00000000
Si      -0.00104256      -2.71475782       2.71466717       0.00000000
Si       2.71438641      -0.00200367       2.71531914       0.00000000
Si      -2.71524978      -0.00229689       2.71449560       0.00000000
Si      -2.71427238      -2.71554463       0.00006863       0.00000000
