10
Lattice="16.28999089631971 0.0 0.0 0.0 16.28999089631971 0.0 0.0 0.0 34.31420841018396" Properties=species:S:1:pos:R:3:initial_magmoms:R:1 pbc="T T T"
Si       1.23269688      -1.36713825      -1.60285188       0.00000000
Si       1.96770168       0.74803680       1.28160209       0.00000000
Si      -1.55530404      -1.24980138       1.44874669       0.00000000
Si      -1.46574162       1.34105796      -1.60103323       0.00000000
Si      -1.25235891       3.34335960       1.20436076       0.00000000
Si      -2.67468768      -2.65264731      -0.14542370       0.00000000
Si       2.61723285      -2.76508089      -0.20475300       0.00000000
Si       2.69961138       2.70324405      -0.01667671       0.00000000
Si      -2.95300233       2.60454294      -0.25107720       0.00000000
Si       2.59408476      -0.00115659      -2.98269560       0.00000000
