10
Lattice="16.28999089631971 0.0 0.0 0.0 16.28999089631971 0.0 0.0 0.0 34.31420841018396" Properties=species:S:1:pos:R:3:initial_magmoms:R:1 pbc="T T T"
Si      -1.35708732      -1.35729909       1.35661299       0.00000000
Si      -1.35482301       1.35540945      -1.36176012       0.00000000
Si       1.35814617       1.35786924       1.35726496       0.00000000
Si       1.35594702      -1.35553977      -1.36501997       0.00000000
Si      -2.71321353      -2.71471221      -0.00013726       0.00000000
Si      -2.71438641      -0.00019548       2.71408383       0.00000000
Si       0.00032580      -2.71471221       2.71473580       0.00000000
Si       0.00026064       2.71524978       2.71439266       0.00000000
Si       2.71601541       2.71363707      -0.00037746       0.00000000
Si       2.71572219       0.00022806       2.71435834       0.00000000
