10
Lattice="16.28999089631971 0.0 0.0 0.0 16.28999089631971 0.0 0.0 0.0 34.31420841018396" Properties=species:S:1:pos:R:3:initial_magmoms:R:1 pbc="T T T"
Si       1.24356231      -1.32107013      -1.51994871       0.00000000
Si       1.13103099       1.44581895       1.71032405       0.00000000
Si      -1.45226979       1.38021912      -1.54094902       0.00000000
Si      -1.26122067      -2.03721111       1.28479331       0.00000000
Si      -0.88783758       1.29424050       3.04034351       0.00000000
Si       2.40585381       2.54497041      -0.07425599       0.00000000
Si      -2.52126846      -0.39442977       2.41098626       0.00000000
Si       2.69074962      -2.67732666       0.06375583       0.00000000
Si       2.59123401       0.04281012      -2.90723862       0.00000000
Si      -0.12929373      -2.66712912      -2.89917477       0.00000000
