10
Lattice="16.28999089631971 0.0 0.0 0.0 16.28999089631971 0.0 0.0 0.0 34.31420841018396" Properties=species:S:1:pos:R:3:initial_magmoms:R:1 pbc="T T T"
Si      -0.31653099      -0.87772149       2.14717848       0.00000000
Si      -1.09755504      -1.61424126      -1.30545047       0.00000000
Si       2.34804060       0.32860188      -0.12891855       0.00000000
Si      -1.62368946       1.76365314      -0.00641676       0.00000000
Si      -2.77151544      -2.28742551       0.26857746       0.00000000
Si      -2.66826942      -0.92738970       2.26288605       0.00000000
Si       2.82357828       0.55770444       2.25005253       0.00000000
Si       0.83070855       0.65461365       3.51209551       0.00000000
Si       0.77195052      -3.00345246       2.18777221       0.00000000
Si       0.28473291      -3.51145611      -1.44558978       0.00000000
