10
Lattice="16.28999089631971 0.0 0.0 0.0 16.28999089631971 0.0 0.0 0.0 34.31420841018396" Properties=species:S:1:pos:R:3:initial_magmoms:R:1 pbc="T T T"
Si      -1.35229064       1.35852084      -1.35891204       0.00000000
Si      -1.35517397      -1.35814617       1.35712770       0.00000000
Si       1.35920823       1.35711990       1.35723064       0.00000000
Si       1.35899646      -1.36041048      -1.35822576       0.00000000
Si      -2.71366223       0.00026064       2.71425540       0.00000000
Si      -2.71284773      -2.71531494       0.00013726       0.00000000
Si       0.00144807      -2.71498914       2.71418677       0.00000000
Si       0.00175437       2.71507059       2.71442697       0.00000000
Si      -2.71462334       2.71495656       0.00030883       0.00000000
Si       2.71453134      -2.71510317      -0.00003431       0.00000000
