10
Lattice="16.28999089631971 0.0 0.0 0.0 16.28999089631971 0.0 0.0 0.0 34.31420841018396" Properties=species:S:1:pos:R:3:initial_magmoms:R:1 pbc="T T T"
Si       1.35694071      -1.35707984      -1.35678456       0.00000000
Si      -1.35710361       1.35707918      -1.35753947       0.00000000
Si       1.35799956       1.35748969       1.35723064       0.00000000
Si      -1.35723393      -1.35740564       1.35826007       0.00000000
Si       2.71332516      -0.00120136      -2.71363775       0.00000000
Si       0.00042354       2.71459655      -2.71398089       0.00000000
Si       2.71579178      -0.00263150       2.71319166       0.00000000
Si       2.71459517      -2.71465586      -0.00003431       0.00000000
Si      -0.00236205      -2.71522601      -2.71411815       0.00000000
Si       2.71471933       2.71492235       0.00006863       0.00000000
