10
Lattice="16.28999089631971 0.0 0.0 0.0 16.28999089631971 0.0 0.0 0.0 34.31420841018396" Properties=species:S:1:pos:R:3:initial_magmoms:R:1 pbc="T T T"
Si       1.50765579       1.28204092       1.27590592       0.00000000
Si      -1.19687517      -1.36805605       1.55223840       0.00000000
Si       0.59934168      -1.77309061      -1.49596307       0.00000000
Si      -1.42526097       1.76109724      -0.85548801       0.00000000
Si      -2.91118590      -0.69589807      -1.85070355       0.00000000
Si      -1.63149237      -2.63119894      -1.67727944       0.00000000
Si       1.16616852      -0.72132676      -3.44604062       0.00000000
Si      -0.53427942       3.67986376       0.31153887       0.00000000
Si       1.75034421       3.29405140       0.13132055       0.00000000
Si      -3.31672545      -0.37707652       1.71118190       0.00000000
