10
Lattice="16.28999089631971 0.0 0.0 0.0 16.28999089631971 0.0 0.0 0.0 34.31420841018396" Properties=species:S:1:pos:R:3:initial_magmoms:R:1 pbc="T T T"
Si       1.35713619       1.35669636       1.35678456       0.00000000
Si      -1.35746199       1.35782037      -1.35747084       0.00000000
Si       1.35848826      -1.35840681      -1.35712770       0.00000000
Si      -1.35837423      -1.35935163       1.35791693       0.00000000
Si       2.71366223      -0.00026064      -2.71425540       0.00000000
Si      -0.00096111       2.71469592      -2.71394657       0.00000000
Si      -2.71463076       2.71489140       0.00027451       0.00000000
Si      -0.00286704       2.71406061       2.71559366       0.00000000
Si      -2.71402803      -0.00003258      -2.71566229       0.00000000
Si       0.00081450      -2.71557558      -2.71411815       0.00000000
