10
Lattice="16.28999089631971 0.0 0.0 0.0 16.28999089631971 0.0 0.0 0.0 34.31420841018396" Properties=species:S:1:pos:R:3:initial_magmoms:R:1 pbc="T T T"
Si      -1.67832612       0.10072107      -1.67446568       0.00000000
Si       0.91324998      -2.19457251      -0.03431423       0.00000000
Si      -1.40361156       0.41827833       1.92200852       0.00000000
Si       1.62701329       1.70197920      -0.55088061       0.00000000
Si      -2.46151674       2.34835011       0.95897972       0.00000000
Si      -3.14423064      -1.62623070      -0.98656836       0.00000000
Si       1.12822911       1.75886388      -3.04051508       0.00000000
Si       0.71188929      -2.83064814       2.26213114       0.00000000
Si       2.90601287      -2.02541715      -1.33074006       0.00000000
Si      -2.93705442       2.11924755      -1.41999137       0.00000000
