10
Lattice="16.28999089631971 0.0 0.0 0.0 16.28999089631971 0.0 0.0 0.0 34.31420841018396" Properties=species:S:1:pos:R:3:initial_magmoms:R:1 pbc="T T T"
Si       0.88039698       1.56252051       1.55426294       0.00000000
Si      -2.26918071      -0.07016103       0.69767688       0.00000000
Si       0.20136069       0.63607563      -2.29644537       0.00000000
Si       0.01917333      -2.38954752       0.25186643       0.00000000
Si       0.61020711      -2.84861601      -1.93854797       0.00000000
Si      -0.83403171      -1.29902976      -3.20971853       0.00000000
Si       1.28847288       0.08951355       3.39546145       0.00000000
Si      -0.71188929       2.83064814      -2.26213114       0.00000000
Si       2.81682512      -1.34203536       2.14347254       0.00000000
Si      -0.68279535       3.40656480       1.58861148       0.00000000
