10
Lattice="16.28999089631971 0.0 0.0 0.0 16.28999089631971 0.0 0.0 0.0 34.31420841018396" Properties=species:S:1:pos:R:3:initial_magmoms:R:1 pbc="T T T"
Si      -1.45813419       1.77969879      -0.27832270       0.00000000
Si      -1.18283319      -1.56419838      -1.28753845       0.00000000
Si       2.26918071       0.07016103      -0.69767688       0.00000000
Si      -0.11152134      -0.35051193       2.36689248       0.00000000
Si       2.28835404      -2.31938649      -0.44581044       0.00000000
Si       0.14664258      -3.34502770      -0.64613691       0.00000000
Si       0.15367986       3.31908750      -1.03779950       0.00000000
Si       3.14957769       1.63268154       0.85658606       0.00000000
Si      -1.75686021      -2.07568809       2.55925804       0.00000000
Si      -2.53387692       2.20781628       1.77167788       0.00000000
