10
Lattice="16.28999089631971 0.0 0.0 0.0 16.28999089631971 0.0 0.0 0.0 34.31420841018396" Properties=species:S:1:pos:R:3:initial_magmoms:R:1 pbc="T T T"
Si      -0.97850772      -1.69096716      -1.36018167       0.00000000
Si       1.28166462      -1.41807708       1.53648817       0.00000000
Si       1.75272255       1.09522557      -1.36903474       0.00000000
Si      -1.91488950       2.03628258       0.39914310       0.00000000
Si       2.44385838       0.52914807       2.09443751       0.00000000
Si      -2.19860266      -0.17120790      -2.74802060       0.00000000
Si       0.50494113       2.56275909      -2.73168703       0.00000000
Si      -2.26563763      -3.12473151       0.04958406       0.00000000
Si       3.45336597       1.83404223       0.08640323       0.00000000
Si      -3.55198723       1.10385927      -1.33290186       0.00000000
