10
Lattice="16.28999089631971 0.0 0.0 0.0 16.28999089631971 0.0 0.0 0.0 34.31420841018396" Properties=species:S:1:pos:R:3:initial_magmoms:R:1 pbc="T T T"
Si       1.76828994      -0.08640216       1.61033239       0.00000000
Si       0.81373437       0.44515683      -2.21419416       0.00000000
Si      -1.42074864       1.81680741       0.70371618       0.00000000
Si      -1.12138731      -2.10883824      -0.43225632       0.00000000
Si       0.04533507      -1.07191458       2.92386527       0.00000000
Si      -3.39850125       0.95931810      -0.24150353       0.00000000
Si      -0.84664017      -3.03046128       1.71046827       0.00000000
Si      -3.20631183      -1.17786474      -1.15350707       0.00000000
Si      -0.17006760      -1.26343611      -3.54864016       0.00000000
Si      -0.97073739       3.54548592      -0.84539963       0.00000000
