10
Lattice="16.28999089631971 0.0 0.0 0.0 16.28999089631971 0.0 0.0 0.0 34.31420841018396" Properties=species:S:1:pos:R:3:initial_magmoms:R:1 pbc="T T T"
Si       1.83464074      -0.05784579       1.45711936       0.00000000
Si       0.67911381      -1.35306369      -1.79820278       0.00000000
Si      -1.39085649      -1.32972012       1.51253684       0.00000000
Si       0.01852173       2.16591840      -1.41213341       0.00000000
Si       0.84927915       1.83461238       2.55112556       0.00000000
Si       3.60011348       0.28269666      -0.09501610       0.00000000
Si      -0.53274816      -3.50658540       0.75995720       0.00000000
Si       2.88029910      -0.62949447      -2.13448221       0.00000000
Si      -0.56128824      -0.53949222      -3.59932227       0.00000000
Si      -1.54173447       1.48426335      -3.03619149       0.00000000
