10
Lattice="16.28999089631971 0.0 0.0 0.0 16.28999089631971 0.0 0.0 0.0 34.31420841018396" Properties=species:S:1:pos:R:3:initial_magmoms:R:1 pbc="T T T"
Si      -1.23119820      -1.44552573      -1.36406059       0.00000000
Si       1.34102538      -1.36510200       1.39721358       0.00000000
Si       0.98971524       1.60218570      -1.45557663       0.00000000
Si      -1.38689802       1.34735897       1.42063990       0.00000000
Si      -0.86118714       3.30739847      -1.26780221       0.00000000
Si      -0.64329210      -0.90484434      -3.63597128       0.00000000
Si      -2.75612139       2.63978540       0.00755256       0.00000000
Si       2.70183238       2.72290349      -0.11405706       0.00000000
Si       2.68558962       0.00518022       2.77826516       0.00000000
Si      -0.02697624      -2.71293660       2.77895145       0.00000000
