10
Lattice="16.28999089631971 0.0 0.0 0.0 16.28999089631971 0.0 0.0 0.0 34.31420841018396" Properties=species:S:1:pos:R:3:initial_magmoms:R:1 pbc="T T T"
Si       1.35779222       1.34535852      -1.36755923       0.00000000
Si      -1.35795069      -1.36666584      -1.36289249       0.00000000
Si       1.39896909      -1.28619324       1.40684902       0.00000000
Si      -1.48375836       1.15566147       1.45372225       0.00000000
Si      -0.38173986      -2.19703230       2.69517669       0.00000000
Si      -2.32575588      -0.76931154       2.61292549       0.00000000
Si      -2.71075374       2.68444932       0.01091192       0.00000000
Si       2.70608244       2.70883871      -0.00425496       0.00000000
Si       0.00000000       2.70547971      -2.72352024       0.00000000
Si       2.71184747      -0.01169622      -2.72406927       0.00000000
