10
Lattice="16.28999089631971 0.0 0.0 0.0 16.28999089631971 0.0 0.0 0.0 34.31420841018396" Properties=species:S:1:pos:R:3:initial_magmoms:R:1 pbc="T T T"
Si       0.53934561       2.26119211       0.34448053       0.00000000
Si       0.17273916      -0.70190352       2.26779299       0.00000000
Si      -2.19071178       0.02148651      -1.01323051       0.00000000
Si       1.85991075      -0.91028520      -1.38941739       0.00000000
Si       1.15318539      -2.72565909       1.70466220       0.00000000
Si       2.86705629       1.93469814       0.35817191       0.00000000
Si      -2.73595437       2.35317523      -0.96951419       0.00000000
Si       2.79798669      -2.48419242       0.07995215       0.00000000
Si      -0.63413712       3.46091706      -1.36333858       0.00000000
Si      -1.97084565      -0.55631979       3.18442895       0.00000000
