10
Lattice="16.28999089631971 0.0 0.0 0.0 16.28999089631971 0.0 0.0 0.0 34.31420841018396" Properties=species:S:1:pos:R:3:initial_magmoms:R:1 pbc="T T T"
Si       0.98044623      -2.02375557      -0.56313079       0.00000000
Si      -2.14358481       0.14558373       0.91663596       0.00000000
Si       1.56025620       0.68165505       1.62405808       0.00000000
Si      -0.17273916       0.70190352      -2.26779299       0.00000000
Si       3.25726567       1.24155864      -0.00391182       0.00000000
Si       0.36660645       2.96309563      -1.92331246       0.00000000
Si      -0.76154121      -3.32073279      -1.35980421       0.00000000
Si      -2.52117072       2.51081028       0.94494520       0.00000000
Si       1.54173447      -1.48426335       3.03619149       0.00000000
Si       2.22084828      -2.83732704       1.23798870       0.00000000
