10
Lattice="16.28999089631971 0.0 0.0 0.0 16.28999089631971 0.0 0.0 0.0 34.31420841018396" Properties=species:S:1:pos:R:3:initial_magmoms:R:1 pbc="T T T"
Si       2.00104179       1.23922917       0.00796090       0.00000000
Si       0.52574346      -1.36164852      -1.85108101       0.00000000
Si      -0.58790610      -0.54068139       2.27191069       0.00000000
Si      -2.38783707       0.38374353       0.82518855       0.00000000
Si      -2.48854185       1.31716053      -1.47002151       0.00000000
Si       3.60583127      -0.79834032      -0.18742431       0.00000000
Si       1.63300734       2.50703004       2.18039465       0.00000000
Si       2.26708974      -2.73986397      -1.14928642       0.00000000
Si       0.64329210       0.90484434       3.63597128       0.00000000
Si      -1.35035955      -2.56126041      -2.52401732       0.00000000
