10
Lattice="16.28999089631971 0.0 0.0 0.0 16.28999089631971 0.0 0.0 0.0 34.31420841018396" Properties=species:S:1:pos:R:3:initial_magmoms:R:1 pbc="T T T"
Si      -1.87610301      -1.19961189      -0.67293632       0.00000000
Si       1.74134628      -1.37821545       0.70179458       0.00000000
Si       0.73606365       1.06984575      -1.95505312       0.00000000
Si      -0.52574346       1.36164852       1.85108101       0.00000000
Si       1.47529833       2.60087769       1.85904191       0.00000000
Si      -3.42572184       0.60297435      -0.68343647       0.00000000
Si       3.08008781       0.56330820       1.66365670       0.00000000
Si       2.11961800      -2.50214400      -1.40629999       0.00000000
Si       1.72142524      -0.82261242      -3.04905932       0.00000000
Si      -1.21806846       2.27377449      -2.66714197       0.00000000
