10
Lattice="16.28999089631971 0.0 0.0 0.0 16.28999089631971 0.0 0.0 0.0 34.31420841018396" Properties=species:S:1:pos:R:3:initial_magmoms:R:1 pbc="T T T"
Si       1.35720135       1.35772263       1.35647573       0.00000000
Si       1.35321030      -1.35760860      -1.36134835       0.00000000
Si      -1.35771774      -1.35778779       1.35671593       0.00000000
Si      -1.35451676       1.35876519      -1.36275523       0.00000000
Si       0.00931788       2.71005327      -2.70983916       0.00000000
Si      -0.00017919      -2.71476108       2.71356912       0.00000000
Si       2.71466334      -0.00017919       2.71374069       0.00000000
Si       2.71300176       2.71544526      -0.00085786       0.00000000
Si      -0.00008145       2.71476108       2.71394657       0.00000000
Si      -2.71517160       0.00016290       2.71391226       0.00000000
