10
Lattice="16.28999089631971 0.0 0.0 0.0 16.28999089631971 0.0 0.0 0.0 34.31420841018396" Properties=species:S:1:pos:R:3:initial_magmoms:R:1 pbc="T T T"
Si      -1.35649275      -1.35697329      -1.35815713       0.00000000
Si      -1.35731045       1.35889551       1.35767673       0.00000000
Si       1.35859740       1.35762489      -1.35812281       0.00000000
Si       1.36402197      -1.36104579       1.35784830       0.00000000
Si      -2.71627183       2.71251306      -0.00044608       0.00000000
Si       2.71504941      -2.71428867      -0.00140688       0.00000000
Si      -2.71477315      -2.71508688      -0.00154414       0.00000000
Si       0.00096111      -2.71492398      -2.71535346       0.00000000
Si      -2.71415413       0.00009774      -2.71617700       0.00000000
Si       0.00130646       2.71533123      -2.71600543       0.00000000
