10
Lattice="16.28999089631971 0.0 0.0 0.0 16.28999089631971 0.0 0.0 0.0 34.31420841018396" Properties=species:S:1:pos:R:3:initial_magmoms:R:1 pbc="T T T"
Si       1.35395964      -1.35908284      -1.36028461       0.00000000
Si      -1.36037953       1.35824391      -1.36049050       0.00000000
Si      -1.36758134      -1.35382932       1.35815713       0.00000000
Si       1.36971207       1.34658027       1.37538287       0.00000000
Si      -0.13712922       2.53563624       2.74122638       0.00000000
Si      -0.00342090      -2.66083434       2.75416285       0.00000000
Si       2.71166598      -2.71545245       0.00006863       0.00000000
Si       2.71686249       2.71339272      -0.00154414       0.00000000
Si       2.71306692       0.00050499      -2.71778977       0.00000000
Si      -2.71410038       2.71777473      -0.00329417       0.00000000
