10
Lattice="16.28999089631971 0.0 0.0 0.0 16.28999089631971 0.0 0.0 0.0 34.31420841018396" Properties=species:S:1:pos:R:3:initial_magmoms:R:1 pbc="T T T"
Si      -0.73051920      -1.57216419       1.55254723       0.00000000
Si      -1.74134628       1.37821545      -0.70179458       0.00000000
Si       0.37827172      -1.12392855      -2.10809457       0.00000000
Si       1.33874152       1.94152365       0.96186211       0.00000000
Si       2.65650478      -1.52169777      -1.72415268       0.00000000
Si       2.44678732       2.45043954      -1.16280623       0.00000000
Si      -2.26708974       2.73986397       1.14928642       0.00000000
Si      -1.00528263       2.44806120      -2.65684770       0.00000000
Si      -0.01992104       0.55560303      -3.75085390       0.00000000
Si       0.14416976      -1.19216736       3.63936839       0.00000000
