10
Lattice="16.28999089631971 0.0 0.0 0.0 16.28999089631971 0.0 0.0 0.0 34.31420841018396" Properties=species:S:1:pos:R:3:initial_magmoms:R:1 pbc="T T T"
Si       1.52383176      -1.10734533       1.44553145       0.00000000
Si       1.27853694       1.60822515      -1.26880086       0.00000000
Si      -1.19936754       1.59562179       1.43106800       0.00000000
Si      -0.81259407      -1.87879086      -1.54664316       0.00000000
Si      -2.51339224      -2.59810839      -0.00280347       0.00000000
Si       2.82204702      -2.42406603      -0.09436069       0.00000000
Si       0.16327467      -2.46283623       2.82850462       0.00000000
Si      -2.55354221       0.25720281       2.82030352       0.00000000
Si      -2.53729945       2.97492608      -0.07201870       0.00000000
Si       1.16025525      -3.51469782      -1.51256913       0.00000000
