10
Lattice="16.28999089631971 0.0 0.0 0.0 16.28999089631971 0.0 0.0 0.0 34.31420841018396" Properties=species:S:1:pos:R:3:initial_magmoms:R:1 pbc="T T T"
Si       1.36416044      -1.30700502       1.39600572       0.00000000
Si      -1.34829022      -1.36348019      -1.36330426       0.00000000
Si       1.36758134       1.35382932      -1.35815713       0.00000000
Si      -1.53672108       1.12404258       1.41048632       0.00000000
Si      -0.05667780       2.45570121       2.79283498       0.00000000
Si      -2.70608244       2.69145009       0.00861287       0.00000000
Si       2.69692679      -2.71555019      -0.00713736       0.00000000
Si      -2.70608244      -2.70883871       0.00425496       0.00000000
Si      -2.70608244      -0.00335900      -2.71926528       0.00000000
Si       0.00720181       2.71207323      -2.71864762       0.00000000
