10
Lattice="16.28999089631971 0.0 0.0 0.0 16.28999089631971 0.0 0.0 0.0 34.31420841018396" Properties=species:S:1:pos:R:3:initial_magmoms:R:1 pbc="T T T"
Si      -0.77908554       0.55338759       2.13722735       0.00000000
Si       0.87765633      -1.80621891      -1.33533817       0.00000000
Si      -1.84929619       1.21528287      -1.17979177       0.00000000
Si       2.54917323       0.16290000       0.31219084       0.00000000
Si       0.22261914      -3.13030269       0.86252242       0.00000000
Si       0.78591105       2.35149408       2.37276021       0.00000000
Si       2.01054438      -0.31387572      -2.81393823       0.00000000
Si       2.84695443       1.53455058      -1.63260232       0.00000000
Si      -0.59929281       2.58476462      -2.65351922       0.00000000
Si       2.91973815       1.41424893       2.16464442       0.00000000
