10
Lattice="16.28999089631971 0.0 0.0 0.0 16.28999089631971 0.0 0.0 0.0 34.31420841018396" Properties=species:S:1:pos:R:3:initial_magmoms:R:1 pbc="T T T"
Si      -1.39896909       1.28619324      -1.40684902       0.00000000
Si      -1.78070895      -0.91083906       1.28832767       0.00000000
Si       1.31129173      -1.45365444      -1.38763305       0.00000000
Si       1.42127041       1.31854518       1.45862919       0.00000000
Si      -2.88272745       2.44185471       0.04687323       0.00000000
Si       2.67127378       2.68802693      -0.01509826       0.00000000
Si      -2.66522337      -2.71202436      -0.02333367       0.00000000
Si      -0.04117687       2.63155176      -2.77440824       0.00000000
Si       2.67492274      -0.08078211      -2.77262390       0.00000000
Si      -2.75691978      -0.08047260      -2.76974151       0.00000000
