10
Lattice="16.28999089631971 0.0 0.0 0.0 16.28999089631971 0.0 0.0 0.0 34.31420841018396" Properties=species:S:1:pos:R:3:initial_magmoms:R:1 pbc="T T T"
Si      -0.63271079       1.10348460       1.97595048       0.00000000
Si      -1.63985633      -1.74149874       0.22836118       0.00000000
Si       2.30858622      -0.60461964      -0.28220021       0.00000000
Si      -0.07537888       1.36278882      -2.06211351       0.00000000
Si      -0.70178039      -3.31540596       1.69773072       0.00000000
Si       0.95489211      -2.21535855       2.93228800       0.00000000
Si       2.85480621      -1.99609515       1.52983121       0.00000000
Si       1.23837557       0.05727564      -3.59921933       0.00000000
Si      -2.96042147       1.42997857       1.96225910       0.00000000
Si      -0.06976225      -0.29155842       3.88165974       0.00000000
