10
Lattice="10.86 0.0 0.0 0.0 10.86 0.0 0.0 0.0 10.86" Properties=species:S:1:pos:R:3:initial_magmoms:R:1 pbc="T T T"
Si      -1.39108998       1.25550288      -1.19543622       0.00000000
Si       1.32391002      -1.45949712      -1.19543622       0.00000000
Si       1.32391002       1.25550288       1.51956378       0.00000000
Si      -0.03358998       2.61300288      -2.55293622       0.00000000
Si       0.26073774      -2.65010064      -2.50736766       0.00000000
Si       2.68141002      -0.10199712      -2.55293622       0.00000000
Si       2.68141002       2.61300288       0.16206378       0.00000000
Si      -2.74858998       2.61300288       0.16206378       0.00000000
Si      -0.03358998       2.61300288       2.87706378       0.00000000
Si       2.68141002      -2.81699712       0.16206378       0.00000000
