10
Lattice="10.86 0.0 0.0 0.0 10.86 0.0 0.0 0.0 10.86" Properties=species:S:1:pos:R:3:initial_magmoms:R:1 pbc="T T T"
Si       1.16470242       1.53335598       1.35850998       0.00000000
Si      -1.55029758      -1.18164402       1.35850998       0.00000000
Si      -1.55029758       1.53335598      -1.35649002       0.00000000
Si       2.21595042      -0.58155300      -1.44657372       0.00000000
Si       2.63164950      -2.44697520      -0.03669594       0.00000000
Si       2.52220242       0.17585598       2.71600998       0.00000000
Si      -0.19279758      -2.53914402       2.71600998       0.00000000
Si       2.40021204       2.86783278      -0.08368716       0.00000000
Si      -2.90779758      -2.53914402       0.00100998       0.00000000
Si      -0.19279758       2.89085598       2.71600998       0.00000000
