10
Lattice="10.86 0.0 0.0 0.0 10.86 0.0 0.0 0.0 10.86" Properties=species:S:1:pos:R:3:initial_magmoms:R:1 pbc="T T T"
Si      -1.36525404       1.46888016      -1.21904586       0.00000000
Si      -1.36525404      -1.24611984       1.49595414       0.00000000
Si       1.34974596       1.46888016       1.49595414       0.00000000
Si       1.85618034      -1.51953120      -1.43114166       0.00000000
Si       2.61366534       0.16195518      -2.38727778       0.00000000
Si      -0.18216564      -2.58402840      -2.55272988       0.00000000
Si      -2.72275404       0.11138016      -2.57654586       0.00000000
Si      -2.72275404      -2.60361984       0.13845414       0.00000000
Si       2.58525558       0.08835696       2.76875700       0.00000000
Si      -0.00775404       2.82638016      -2.57654586       0.00000000
