10
Lattice="10.86 0.0 0.0 0.0 10.86 0.0 0.0 0.0 10.86" Properties=species:S:1:pos:R:3:initial_magmoms:R:1 pbc="T T T"
Si      -0.69868896       0.29068962       2.36370072       0.00000000
Si      -1.24350258       2.13218724      -0.47331138       0.00000000
Si      -0.58194396      -1.65559614      -1.83539430       0.00000000
Si       1.98189570      -1.18126392       1.13264370       0.00000000
Si      -1.74993696      -0.30940140      -2.97621558       0.00000000
Si      -1.74993696      -3.02440140      -0.26121558       0.00000000
Si       2.67001788       1.37662446      -1.91092560       0.00000000
Si      -3.28184856       1.06769004      -1.59489960       0.00000000
Si       0.96506304       2.40559860      -2.97621558       0.00000000
Si       0.96506304      -3.02440140       2.45378442       0.00000000
