10
Lattice="10.86 0.0 0.0 0.0 10.86 0.0 0.0 0.0 10.86" Properties=species:S:1:pos:R:3:initial_magmoms:R:1 pbc="T T T"
Si      -1.23550962       1.38052320      -1.27280286       0.00000000
Si      -1.23550962      -1.33447680       1.44219714       0.00000000
Si       1.47949038       1.38052320       1.44219714       0.00000000
Si      -0.18426162      -3.44938578      -1.36288656       0.00000000
Si      -2.40021204      -2.86783278       0.08368716       0.00000000
Si      -2.59300962       2.73802320       0.08469714       0.00000000
Si      -2.58525558      -0.08835696      -2.76875700       0.00000000
Si       0.12199038       2.73802320      -2.63030286       0.00000000
Si      -2.59300962       0.02302320       2.79969714       0.00000000
Si       0.12199038      -2.69197680       2.79969714       0.00000000
