10
Lattice="16.290000149 0.0 0.0 0.0 16.290000149 0.0 0.0 0.0 29.1751946751" Properties=species:S:1:pos:R:3:initial_magmoms:R:1 pbc="T T T"
Si       1.37010304       1.34680834       1.33657402       0.00000000
Si       1.44352207      -1.33070568      -1.28154960       0.00000000
Si      -1.34970796      -1.38538469       1.33730340       0.00000000
Si      -1.37692855       1.34148151      -1.35749263       0.00000000
Si       0.11831427      -2.66657333      -2.61840954       0.00000000
Si       0.03425787       2.74597275      -2.61473054       0.00000000
Si       0.00273672       2.69192252       2.68356358       0.00000000
Si      -2.71179632      -0.01998783       2.68117122       0.00000000
Si       2.69418683      -0.03386691       2.70031014       0.00000000
Si      -2.79673239      -0.08754246      -2.59280247       0.00000000
