10
Lattice="16.290000149 0.0 0.0 0.0 16.290000149 0.0 0.0 0.0 29.1751946751" Properties=species:S:1:pos:R:3:initial_magmoms:R:1 pbc="T T T"
Si      -1.36770841      -1.35778780      -1.32875507       0.00000000
Si      -1.44072019       1.33364602       1.27880713       0.00000000
Si       1.35459496       1.35218404      -1.35950572       0.00000000
Si       1.36407574      -1.32675535       1.37884888       0.00000000
Si      -0.09288558       2.67685427       2.59215770       0.00000000
Si      -0.09236430      -2.62511723       2.68210482       0.00000000
Si       0.00335574      -2.71394660      -2.66162383       0.00000000
Si      -2.71024877       0.02541240      -2.67244783       0.00000000
Si       2.73210995      -0.01391166      -2.67250618       0.00000000
Si       2.73201221       2.69081480      -0.02456551       0.00000000
