10
Lattice="16.290000149 0.0 0.0 0.0 16.290000149 0.0 0.0 0.0 29.1751946751" Properties=species:S:1:pos:R:3:initial_magmoms:R:1 pbc="T T T"
Si      -1.39831732       1.42490260      -1.22465797       0.00000000
Si      -1.32646213      -1.38258118       1.37582341       0.00000000
Si       1.19909062      -1.47295810      -1.42908856       0.00000000
Si       1.30854313       1.44651943       1.37004380       0.00000000
H        3.22217832       1.73050301      -0.50881540       0.00000000
Si      -0.00387702       2.65614968      -2.65228777       0.00000000
Si       2.67098987      -2.68227884       0.02541159       0.00000000
Si       2.52942977      -0.14069673      -2.82751399       0.00000000
Si      -2.90276400       0.13926321      -2.50950437       0.00000000
Si       2.73587295       0.07951149       2.70442968       0.00000000
