10
Lattice="16.290000149 0.0 0.0 0.0 16.290000149 0.0 0.0 0.0 29.1751946751" Properties=species:S:1:pos:R:3:initial_magmoms:R:1 pbc="T T T"
Si      -1.33793029       1.15416280       1.55689634       0.00000000
Si      -1.30854313      -1.44651943      -1.37004380       0.00000000
Si       1.42732981      -1.36700794       1.33438588       0.00000000
Si       0.83393398       1.99747982      -1.09127102       0.00000000
H        1.91363519       0.28398357      -1.87885920       0.00000000
Si      -0.91191421       3.53997993      -0.63968657       0.00000000
Si      -2.74416456       2.51804306       0.30274224       0.00000000
Si      -2.70686045      -0.02161683      -2.59470177       0.00000000
Si       0.08410527       2.61402374       2.78187815       0.00000000
Si      -2.63500526      -2.82910062       0.00577961       0.00000000
