10
Lattice="16.290000149 0.0 0.0 0.0 16.290000149 0.0 0.0 0.0 29.1751946751" Properties=species:S:1:pos:R:3:initial_magmoms:R:1 pbc="T T T"
Si       1.35671266       1.36826227       1.33596134       0.00000000
Si      -1.32596855       1.36089919      -1.37537703       0.00000000
Si       1.38450340      -1.35280958      -1.33546536       0.00000000
Si      -1.34863934      -1.35418283       1.37642733       0.00000000
Si       2.71199180       0.00286704       2.67271041       0.00000000
Si      -2.69651630      -0.00775404      -2.70028097       0.00000000
Si       0.05947479      -2.69319314       2.70608683       0.00000000
Si      -2.69143382       2.71072118      -0.02555747       0.00000000
Si       0.02922426      -2.71619462      -2.68633522       0.00000000
Si      -0.02130732       2.71316468       2.69281212       0.00000000
