10
Lattice="16.290000149 0.0 0.0 0.0 16.290000149 0.0 0.0 0.0 29.1751946751" Properties=species:S:1:pos:R:3:initial_magmoms:R:1 pbc="T T T"
Si      -0.89979445       0.90556111      -0.80832794       0.00000000
Si       0.90331309      -1.57079584       1.48901441       0.00000000
H       -2.01583865      -0.35047935       1.41458849       0.00000000
Si       1.92425627       0.58052674       1.88130408       0.00000000
Si       1.87618448      -1.97056385      -0.66522361       0.00000000
Si      -1.40330206      -1.65787404       1.85183713       0.00000000
Si      -2.20231028      -0.54931509      -2.09985546       0.00000000
Si       0.44015580       2.20511216      -2.20794956       0.00000000
Si      -2.05405499       2.32482737       0.65320343       0.00000000
Si       3.04406346       2.01891746       0.32862939       0.00000000
