10
Lattice="16.290000149 0.0 0.0 0.0 16.290000149 0.0 0.0 0.0 29.1751946751" Properties=species:S:1:pos:R:3:initial_magmoms:R:1 pbc="T T T"
Si       1.38131056       1.31875696      -1.36134376       0.00000000
Si      -1.37314927      -1.32646213      -1.36227736       0.00000000
Si       1.35433432      -1.37166688       1.33800360       0.00000000
Si      -1.36964692       1.37808514       1.32198642       0.00000000
Si      -0.05167188       2.63870309      -2.64400202       0.00000000
Si       0.04681746      -2.65593791      -2.66398703       0.00000000
Si       2.72512155      -0.01132155       2.66261579       0.00000000
Si      -2.72743472       0.01769094       2.67066815       0.00000000
Si      -0.01630629       2.73109997       2.68085029       0.00000000
Si      -2.72334593      -2.70094718      -0.01315801       0.00000000
