10
Lattice="16.290000149 0.0 0.0 0.0 16.290000149 0.0 0.0 0.0 29.1751946751" Properties=species:S:1:pos:R:3:initial_magmoms:R:1 pbc="T T T"
Si       1.75037681       0.33176703      -1.48621359       0.00000000
Si      -1.91723528       1.06282314      -0.77801492       0.00000000
Si       0.63835624       0.67609528       2.14758608       0.00000000
Si      -0.05134608      -2.14474794       0.97745655       0.00000000
Si       1.88085971      -1.96927205      -1.73306491       0.00000000
Si      -0.60362596      -1.11106598       2.98952385       0.00000000
H        1.32481684       2.98472876       0.00749803       0.00000000
Si      -0.75357541       2.49827678      -2.28476785       0.00000000
Si      -2.89010667       1.46259115       1.37622311       0.00000000
Si       2.13812768      -2.85831510       0.50747334       0.00000000
