10
Lattice="16.290000149 0.0 0.0 0.0 16.290000149 0.0 0.0 0.0 29.1751946751" Properties=species:S:1:pos:R:3:initial_magmoms:R:1 pbc="T T T"
H       -0.17878275       1.38764574       0.61034507       0.00000000
Si       0.83386882      -1.24413410       1.71361965       0.00000000
Si       1.89561845       0.01628511      -1.33870381       0.00000000
Si      -1.90058690      -0.54810801      -1.28583835       0.00000000
Si       0.64104409       1.12321017      -2.94088880       0.00000000
Si      -2.63031374       1.64194894      -0.88348325       0.00000000
Si      -0.69152680       2.67012488      -1.78432573       0.00000000
Si       1.87330115       0.60961253       2.66589508       0.00000000
Si       2.33031710      -2.27338518      -1.03624456       0.00000000
Si      -0.99838153      -2.26607097       2.65604846       0.00000000
