10
Lattice="16.290000149 0.0 0.0 0.0 16.290000149 0.0 0.0 0.0 29.1751946751" Properties=species:S:1:pos:R:3:initial_magmoms:R:1 pbc="T T T"
Si       1.37655388       1.34444629      -1.33882051       0.00000000
Si       1.35980776      -1.39851280       1.30246822       0.00000000
Si      -1.35334063      -1.35301483      -1.35886387       0.00000000
Si      -1.37218816       1.36669843       1.33330640       0.00000000
Si       0.00821016       2.69312798      -2.67994586       0.00000000
Si       2.77871565      -0.08602749       2.61039219       0.00000000
Si      -0.00864999       2.74872576       2.65082901       0.00000000
Si      -2.73906579       0.00949707       2.67183515       0.00000000
Si       0.01630629      -2.73109997      -2.68085029       0.00000000
Si       0.01694160      -2.75102265       2.66798403       0.00000000
