10
Lattice="16.290000149 0.0 0.0 0.0 16.290000149 0.0 0.0 0.0 29.1751946751" Properties=species:S:1:pos:R:3:initial_magmoms:R:1 pbc="T T T"
Si       0.61488235       0.51398208      -2.18183776       0.00000000
Si      -2.30049011      -0.06046848       0.45206964       0.00000000
Si       0.76966993       2.04558419       0.88056573       0.00000000
Si       1.22114728      -1.87073547       0.95151980       0.00000000
Si       1.69803704       1.00281241       2.71460599       0.00000000
Si       3.03060792      -0.54410230       1.55804292       0.00000000
Si       1.30272760      -1.53562411      -2.94961218       0.00000000
Si      -0.24074991      -0.02536353       3.61544847       0.00000000
Si      -2.44437968       0.35609940       2.81079661       0.00000000
Si      -3.16175871       2.01714185      -0.33997854       0.00000000
