10
Lattice="16.290000149 0.0 0.0 0.0 16.290000149 0.0 0.0 0.0 29.1751946751" Properties=species:S:1:pos:R:3:initial_magmoms:R:1 pbc="T T T"
Si      -1.30245067      -1.35384562       1.43478939       0.00000000
Si       1.36071349      -1.45826452      -1.28673987       0.00000000
Si       1.39018698       1.28721952       1.43417671       0.00000000
Si      -1.30051216       1.52984278      -1.31813238       0.00000000
Si       2.70622514       0.00356751      -2.52053405       0.00000000
Si      -2.53208504       2.73069468       0.27808629       0.00000000
Si      -2.64919385      -2.68664456       0.04582256       0.00000000
Si       2.80313436       2.67755474       0.17865430       0.00000000
Si      -2.64626165      -0.05066190       2.85859724       0.00000000
Si       0.10988827       2.63217080       2.89159439       0.00000000
