10
Lattice="16.290000149 0.0 0.0 0.0 16.290000149 0.0 0.0 0.0 29.1751946751" Properties=species:S:1:pos:R:3:initial_magmoms:R:1 pbc="T T T"
Si      -1.25457436       1.10692506      -1.60218499       0.00000000
Si      -1.89561845      -0.01628511       1.33870381       0.00000000
Si       1.57367917       1.68701196       0.44340461       0.00000000
Si       0.43469865      -2.28967029       0.30245924       0.00000000
H        1.83892925       0.58129888      -2.37497755       0.00000000
H       -2.07440120       1.37136063       1.94904888       0.00000000
Si      -1.06174963      -1.26041921       3.05232345       0.00000000
Si       2.04734351      -2.46333798      -1.37587301       0.00000000
Si       0.84341476       2.32127941       2.62239574       0.00000000
Si      -2.58714524       2.65383976      -0.44562192       0.00000000
