10
Lattice="16.290000149 0.0 0.0 0.0 16.290000149 0.0 0.0 0.0 29.1751946751" Properties=species:S:1:pos:R:3:initial_magmoms:R:1 pbc="T T T"
Si      -0.22535586       2.13456017       0.91090793       0.00000000
Si      -1.81405442      -0.75557908      -1.38272918       0.00000000
Si       0.34086825      -1.94924513       1.37216776       0.00000000
Si       2.12398796       0.58209058      -1.00811968       0.00000000
H        2.21109059      -0.23592807       1.57233877       0.00000000
H       -1.35298225       2.19525671       1.91867750       0.00000000
H        2.85824343      -0.66425734       1.61350497       0.00000000
Si       1.94755097      -2.73929384      -0.15197359       0.00000000
H       -1.05246433      -1.11143413       3.00151485       0.00000000
H        1.06293880      -1.86673628       2.69444593       0.00000000
