10
Lattice="16.290000149 0.0 0.0 0.0 16.290000149 0.0 0.0 0.0 29.1751946751" Properties=species:S:1:pos:R:3:initial_magmoms:R:1 pbc="T T T"
Si      -1.36212094      -1.35943309      -1.32802569       0.00000000
Si      -1.35744571       1.33828867       1.35778439       0.00000000
Si       1.33441165      -1.36674730       1.36344437       0.00000000
Si       1.33617097       1.36816453      -1.37225528       0.00000000
Si       0.02166570       2.66525579       2.71317640       0.00000000
Si       0.00524538      -2.70454727      -2.67501525       0.00000000
Si      -2.69068448       0.01226637      -2.69934736       0.00000000
Si      -2.70800075       2.68527620      -0.01820532       0.00000000
Si       2.67739022      -0.00573408       2.71664825       0.00000000
Si       2.68983903       2.72139113      -0.01301214       0.00000000
