10
Lattice="16.290000149 0.0 0.0 0.0 16.290000149 0.0 0.0 0.0 29.1751946751" Properties=species:S:1:pos:R:3:initial_magmoms:R:1 pbc="T T T"
Si       1.51088122      -1.26748907      -1.19419907       0.00000000
Si      -1.27909081      -1.49634729       1.22500807       0.00000000
Si      -1.42394149       1.59943692      -0.97357625       0.00000000
Si       1.21036330       1.12664736       1.67789462       0.00000000
H        0.65127421      -2.01549330      -2.33880031       0.00000000
Si      -0.79531039       1.99228657       2.62416289       0.00000000
Si      -2.30262410       0.13110844       2.54579831       0.00000000
Si       2.65008883       2.52435055       0.29461112       0.00000000
Si      -0.06913476       2.59700395      -2.61188013       0.00000000
Si       1.78709447      -0.64234403       3.16165750       0.00000000
