10
Lattice="16.290000149 0.0 0.0 0.0 16.290000149 0.0 0.0 0.0 29.1751946751" Properties=species:S:1:pos:R:3:initial_magmoms:R:1 pbc="T T T"
Si      -1.37041255       1.34421823       1.34062937       0.00000000
Si      -1.38517129      -1.35127180      -1.32423291       0.00000000
Si       1.36366849      -1.36384768       1.33499856       0.00000000
Si       1.37090125       1.35672895      -1.33835371       0.00000000
Si       0.00793323       2.67944438       2.68548914       0.00000000
Si      -0.05481585      -2.77120270      -2.61004209       0.00000000
Si      -0.00206883      -2.71080915       2.68163802       0.00000000
Si       2.69853626      -0.00237834      -2.70366529       0.00000000
Si      -2.72082098      -0.02059056       2.69637149       0.00000000
Si      -2.71614575       2.70314633      -0.02856252       0.00000000
