10
Lattice="16.290000149 0.0 0.0 0.0 16.290000149 0.0 0.0 0.0 29.1751946751" Properties=species:S:1:pos:R:3:initial_magmoms:R:1 pbc="T T T"
Si      -1.35996578      -1.34887717       1.35632563       0.00000000
Si      -1.38746167       1.35048988      -1.33111826       0.00000000
Si       1.31893615      -1.36172998      -1.39130668       0.00000000
Si       1.37062432       1.36283770       1.35057811       0.00000000
Si      -0.01283652       2.69970914      -2.68163802       0.00000000
Si       0.01218492      -2.69198768       2.71160094       0.00000000
Si       2.68525991      -2.71922456      -0.06223069       0.00000000
Si       2.68011227      -0.01817964      -2.74159304       0.00000000
Si      -2.70229732      -0.01493793      -2.72583844       0.00000000
Si      -2.70506144      -2.72710892      -0.00236319       0.00000000
