10
Lattice="16.290000149 0.0 0.0 0.0 16.290000149 0.0 0.0 0.0 29.1751946751" Properties=species:S:1:pos:R:3:initial_magmoms:R:1 pbc="T T T"
Si      -0.53595729      -0.25725168       1.38558835       0.00000000
H       -0.67390102      -0.92452267      -1.61671424       0.00000000
H       -1.59510052       0.84328444      -1.16525728       0.00000000
H        1.27190692       1.75630637       0.42204837       0.00000000
Si       0.45372537      -0.98521921      -2.62448381       0.00000000
Si       2.18158940       1.82790092      -0.79382787       0.00000000
Si       2.51716340      -0.29049957      -1.73090595       0.00000000
Si       1.15383700      -1.18573282       2.69683829       0.00000000
Si      -2.33391719      -1.85297123       1.26693283       0.00000000
Si      -1.38515500       1.61751556       2.50118944       0.00000000
