10
Lattice="16.290000149 0.0 0.0 0.0 16.290000149 0.0 0.0 0.0 29.1751946751" Properties=species:S:1:pos:R:3:initial_magmoms:R:1 pbc="T T T"
Si      -1.30699558       1.42530985       1.30183190       0.00000000
Si       1.26441352       1.48361176      -1.32653775       0.00000000
Si       1.45163449      -1.41693679       1.21733500       0.00000000
Si      -1.37854126      -1.02843658      -1.63208957       0.00000000
Si       0.33726816      -1.47044944      -3.15684359       0.00000000
Si      -0.42538077       2.41209290      -2.63778770       0.00000000
Si       2.23568849       0.02938716      -2.83862974       0.00000000
Si      -2.22334067       0.81637336      -2.75644322       0.00000000
Si       2.40860684      -2.68757309      -0.53647348       0.00000000
Si      -2.60719823      -0.05882319       2.57546949       0.00000000
