10
Lattice="16.290000149 0.0 0.0 0.0 16.290000149 0.0 0.0 0.0 29.1751946751" Properties=species:S:1:pos:R:3:initial_magmoms:R:1 pbc="T T T"
Si       1.37482714      -1.34579870       1.33365650       0.00000000
Si       1.36573732       1.34696147      -1.34663946       0.00000000
Si      -1.34939845      -1.37345227      -1.34853585       0.00000000
Si      -1.34987086       1.34497409       1.37736094       0.00000000
Si      -0.01568727      -2.69527175       2.63463678       0.00000000
Si       0.00206883       2.71080915      -2.68163802       0.00000000
Si      -2.73204480      -0.01372270      -2.66906351       0.00000000
Si      -2.71875215       2.69021859       0.01473347       0.00000000
Si       2.72448623       2.68951812       0.01928480       0.00000000
Si       2.72782568      -0.01843539      -2.69050728       0.00000000
