10
Lattice="16.290000149 0.0 0.0 0.0 16.290000149 0.0 0.0 0.0 29.1751946751" Properties=species:S:1:pos:R:3:initial_magmoms:R:1 pbc="T T T"
Si       1.35892810      -1.33944526       1.38079194       0.00000000
Si      -1.50641776      -1.38517129      -1.16737977       0.00000000
Si      -1.40033728       1.34947990       1.36903142       0.00000000
Si       1.48757023       1.19972593      -1.43531746       0.00000000
Si      -2.64606617       0.11648979      -2.55004330       0.00000000
Si      -0.24325531      -2.81246853      -2.49434786       0.00000000
Si       2.66085749       2.66747123       0.01457301       0.00000000
Si       0.13179588       2.60811047      -2.74887225       0.00000000
Si      -0.01517902      -2.70029558       2.74254124       0.00000000
Si       2.67928148       0.00135207       2.77521746       0.00000000
