10
Lattice="16.290000149 0.0 0.0 0.0 16.290000149 0.0 0.0 0.0 29.1751946751" Properties=species:S:1:pos:R:3:initial_magmoms:R:1 pbc="T T T"
Si       2.23205582      -0.50678190       0.32366961       0.00000000
Si      -1.05015115       0.67371694       2.06971749       0.00000000
Si      -0.05442489       2.06687522      -1.28963113       0.00000000
Si      -0.64984069      -1.77028319      -1.58800585       0.00000000
Si      -2.36104004       1.97979702      -0.92680841       0.00000000
H       -0.65358739      -2.91366201       1.54193821       0.00000000
Si       2.78433570      -1.54046386      -1.68839769       0.00000000
Si      -3.11979567       1.39452827       1.22489137       0.00000000
Si       3.47403801       1.28037935      -0.51826816       0.00000000
Si       1.16766721      -3.23152878      -1.75383765       0.00000000
