10
Lattice="16.290000149 0.0 0.0 0.0 16.290000149 0.0 0.0 0.0 29.1751946751" Properties=species:S:1:pos:R:3:initial_magmoms:R:1 pbc="T T T"
Si      -1.61264485       0.17366769       1.67833225       0.00000000
Si       0.83621458       1.92896082      -1.01649296       0.00000000
Si       1.76896370      -1.15616647       1.03040953       0.00000000
Si      -1.56261826      -0.77732623      -1.59424934       0.00000000
H       -0.20841426       3.04463687      -0.99910454       0.00000000
Si      -2.04734351       2.46333798       1.37587301       0.00000000
Si       1.11545776       1.19373121      -3.22307128       0.00000000
Si       0.61704892      -2.79577128       2.21115883       0.00000000
Si      -2.47883303      -2.61418664      -0.42680392       0.00000000
Si      -0.41477598      -0.64920538      -3.65512674       0.00000000
