10
Lattice="16.290000149 0.0 0.0 0.0 16.290000149 0.0 0.0 0.0 29.1751946751" Properties=species:S:1:pos:R:3:initial_magmoms:R:1 pbc="T T T"
Si       1.34798122       1.36176256       1.35043224       0.00000000
Si      -1.34234977       1.35799957      -1.36431963       0.00000000
Si       1.35902584      -1.35513253      -1.35428336       0.00000000
Si      -1.36739402      -1.36607941       1.34392617       0.00000000
Si      -0.03347595      -2.69832449      -2.68379698       0.00000000
Si       2.69052158      -0.02143764       2.69412500       0.00000000
Si      -2.67754041      -0.01878237      -2.70944198       0.00000000
Si      -0.04189788       2.71215470       2.68262998       0.00000000
Si       2.69689097       2.70953201      -0.02701623       0.00000000
Si       2.68850162      -2.72513783       0.01835120       0.00000000
