10
Lattice="16.290000149 0.0 0.0 0.0 16.290000149 0.0 0.0 0.0 29.1751946751" Properties=species:S:1:pos:R:3:initial_magmoms:R:1 pbc="T T T"
Si      -0.64161424       0.84416410      -1.07916128       0.00000000
Si       2.14560479       0.26738406       1.31924395       0.00000000
Si       2.24775938      -1.45186255      -0.48424988       0.00000000
Si       0.38708298       1.23012307       2.57809525       0.00000000
Si      -2.07417314       2.06757569       0.20834007       0.00000000
Si       0.42555996      -2.65296173      -1.49371162       0.00000000
Si      -2.07839225      -0.48645198      -2.29226587       0.00000000
Si      -0.68646061      -2.30863348       2.14008805       0.00000000
Si      -1.37430586      -0.25902729       2.90786248       0.00000000
Si       0.85999798       2.20732760      -2.23867104       0.00000000
