10
Lattice="16.290000149 0.0 0.0 0.0 16.290000149 0.0 0.0 0.0 29.1751946751" Properties=species:S:1:pos:R:3:initial_magmoms:R:1 pbc="T T T"
Si       0.92836711      -1.04277178       1.83404026       0.00000000
Si      -0.76966993      -2.04558419      -0.88056573       0.00000000
Si      -1.29520162       1.50175882       1.32049849       0.00000000
Si       1.99032851       0.60110101      -1.16983778       0.00000000
H       -0.25744716       2.68495040      -1.44566007       0.00000000
Si      -0.15478758      -1.53160210      -3.06240348       0.00000000
Si       2.26093799      -2.58968648       0.67747720       0.00000000
Si      -1.01041984      -2.07094772       2.73488275       0.00000000
Si       1.99966268       0.71680888       2.89814714       0.00000000
Si       0.29856312       2.31454838       2.88218831       0.00000000
