10
Lattice="16.290000149 0.0 0.0 0.0 16.290000149 0.0 0.0 0.0 29.1751946751" Properties=species:S:1:pos:R:3:initial_magmoms:R:1 pbc="T T T"
Si      -1.16409481       0.16027731      -2.01641440       0.00000000
Si       0.22534772       1.85463281       1.43314391       0.00000000
Si       2.30873774      -0.17756100      -0.60095066       0.00000000
Si      -1.16038069      -2.05765508       0.58957233       0.00000000
H       -2.71614087       0.59020300       0.00927771       0.00000000
H       -2.19419297      -0.95039119      -1.79882580       0.00000000
Si      -3.17061558      -0.69271597       0.67067938       0.00000000
Si       1.66334422       0.66813436       2.87722852       0.00000000
Si       1.88303116      -1.98956288      -2.08655157       0.00000000
Si       0.31777718      -0.91443916      -3.45052110       0.00000000
