10
Lattice="16.290000149 0.0 0.0 0.0 16.290000149 0.0 0.0 0.0 29.1751946751" Properties=species:S:1:pos:R:3:initial_magmoms:R:1 pbc="T T T"
Si       1.43289359      -1.34257294       1.29488267       0.00000000
Si      -1.25861428      -1.36210465      -1.45735932       0.00000000
Si       1.37917657       1.33231024      -1.38576340       0.00000000
Si      -1.42250797       1.28500408       1.40854922       0.00000000
Si      -2.68934870       2.68185530      -0.01546285       0.00000000
Si       0.10559178      -2.83405278       2.53389483       0.00000000
Si      -0.03657105       2.70576414       2.68198812       0.00000000
Si      -2.60025869      -2.81154000      -0.20839842       0.00000000
Si      -2.82735759      -0.27580599       2.60155211       0.00000000
Si      -2.64495845      -0.01707192      -2.80163559       0.00000000
