10
Lattice="16.290000149 0.0 0.0 0.0 16.290000149 0.0 0.0 0.0 29.1751946751" Properties=species:S:1:pos:R:3:initial_magmoms:R:1 pbc="T T T"
Si      -0.72207055      -0.08250885      -1.32227817       0.00000000
H       -2.11540313       0.75530215       0.30706892       0.00000000
H        1.14815179       1.63080820      -1.12210716       0.00000000
H        1.79530463       1.20247894      -1.08094096       0.00000000
Si      -1.51532839       0.84672163       1.70747827       0.00000000
Si       0.25744716      -2.68495040       1.44566007       0.00000000
Si       2.24777567      -2.08384940       0.27582229       0.00000000
Si       0.88461217      -0.87255757      -2.84641952       0.00000000
Si       0.38309193       2.34655823       2.02569212       0.00000000
Si      -1.03775446      -1.18319158       2.76615856       0.00000000
