10
Lattice="16.290000149 0.0 0.0 0.0 16.290000149 0.0 0.0 0.0 29.1751946751" Properties=species:S:1:pos:R:3:initial_magmoms:R:1 pbc="T T T"
Si      -0.97127497       1.45422460       1.51209199       0.00000000
Si       1.56543643      -1.28106190       1.12601664       0.00000000
Si       1.61728750       1.02887641      -1.39632482       0.00000000
Si      -1.89842033      -1.49983660      -0.31821385       0.00000000
H       -0.38309193      -2.34655823      -2.02569212       0.00000000
H        0.76505986      -0.71575003      -3.14779928       0.00000000
H       -2.49849506      -1.59125608      -1.71862319       0.00000000
Si       0.17291835      -2.71696025       2.30215626       0.00000000
Si      -2.66106926       2.38270574       0.20084204       0.00000000
H       -2.12511197       2.63995742      -1.18474631       0.00000000
