10
Lattice="16.290000149 0.0 0.0 0.0 16.290000149 0.0 0.0 0.0 29.1751946751" Properties=species:S:1:pos:R:3:initial_magmoms:R:1 pbc="T T T"
Si       1.32714794      -1.35856972       1.36516571       0.00000000
Si      -1.34297856      -1.36101322      -1.35320388       0.00000000
Si      -1.32207849       1.33366231       1.40641943       0.00000000
Si       1.34798285       1.36739890      -1.36431963       0.00000000
Si      -2.65572452       2.67098987      -0.00347185       0.00000000
Si       2.63945406       0.06944427       2.68808574       0.00000000
Si      -2.67739022       0.00573408      -2.71664825       0.00000000
Si      -2.69842061      -2.70710480       0.02121037       0.00000000
Si       2.70516792      -2.70347213       0.00831493       0.00000000
Si       0.02248672      -2.71083521      -2.70302344       0.00000000
