10
Lattice="16.290000149 0.0 0.0 0.0 16.290000149 0.0 0.0 0.0 29.1751946751" Properties=species:S:1:pos:R:3:initial_magmoms:R:1 pbc="T T T"
Si       1.40929678      -1.18063405      -1.46926280       0.00000000
Si      -1.31661971      -1.42716691       1.34596843       0.00000000
Si      -1.83973397       1.17497328      -0.93255592       0.00000000
Si       1.44638911       1.44156727       1.27504353       0.00000000
H        0.80273863       2.59877630      -1.44717718       0.00000000
Si      -0.47816037       2.55951740      -2.26781706       0.00000000
Si      -2.77206933       1.98975836       1.06221049       0.00000000
Si      -2.48729520       0.16449968       2.63262369       0.00000000
Si      -0.13012452      -2.49557915      -2.65701415       0.00000000
Si       2.79803559      -2.49647510      -0.04061187       0.00000000
