10
Lattice="16.290000149 0.0 0.0 0.0 16.290000149 0.0 0.0 0.0 29.1751946751" Properties=species:S:1:pos:R:3:initial_magmoms:R:1 pbc="T T T"
Si       1.35334063       1.35301483       1.35886387       0.00000000
Si      -1.35778780      -1.36039420       1.34868172       0.00000000
Si       1.36964692      -1.37808514      -1.32198642       0.00000000
Si      -1.38271150       1.33999912      -1.34879842       0.00000000
Si       2.71314839      -0.04549797       2.66133208       0.00000000
Si      -0.01844028       2.70187571      -2.67743679       0.00000000
Si      -0.00350235      -2.70454727      -2.68426379       0.00000000
Si      -0.01884753       2.71971326       2.69217026       0.00000000
Si      -2.73406476       0.00272043       2.68090864       0.00000000
Si       2.72989451       2.69746112       0.02004336       0.00000000
