10
Lattice="16.290000149 0.0 0.0 0.0 16.290000149 0.0 0.0 0.0 29.1751946751" Properties=species:S:1:pos:R:3:initial_magmoms:R:1 pbc="T T T"
H       -1.04462884       1.11567605       0.01738842       0.00000000
Si      -0.83621458      -1.92896082       1.01649296       0.00000000
Si       0.27924318      -0.73522961      -2.20657832       0.00000000
Si       1.86853795       0.90141856       1.11723490       0.00000000
Si       2.54733737      -1.22528168      -2.08967332       0.00000000
Si      -2.39883284      -2.70628705      -0.57775638       0.00000000
Si       0.93620260       1.71620364       3.11200132       0.00000000
H        0.16785216       3.28967105      -1.71363423       0.00000000
Si      -2.88355809       0.53437716       2.39236596       0.00000000
Si       0.93274912      -3.08512729       2.04690248       0.00000000
