10
Lattice="16.290000149 0.0 0.0 0.0 16.290000149 0.0 0.0 0.0 29.1751946751" Properties=species:S:1:pos:R:3:initial_magmoms:R:1 pbc="T T T"
H       -0.64715284       0.42832926      -0.04116620       0.00000000
Si       1.98545780       0.62110513       1.08922672       0.00000000
H       -1.79530463      -1.20247894       1.08094096       0.00000000
Si       0.75215818      -0.55496773      -2.49657976       0.00000000
Si       0.20507481       2.17295570       1.71030826       0.00000000
Si      -2.51737517      -1.28498779      -0.24133721       0.00000000
Si      -0.91069246      -2.07503651      -1.76547856       0.00000000
Si       2.61307892       0.27896625      -1.23583207       0.00000000
Si       1.22295547      -1.24838416       2.36733365       0.00000000
Si      -0.73425547       1.24634791      -2.62162464       0.00000000
