10
Lattice="16.290000149 0.0 0.0 0.0 16.290000149 0.0 0.0 0.0 29.1751946751" Properties=species:S:1:pos:R:3:initial_magmoms:R:1 pbc="T T T"
Si      -1.40372723       1.30877119       1.32111117       0.00000000
Si       1.36925433      -1.23489604       1.44711883       0.00000000
Si       1.32734016       1.40499622      -1.33858711       0.00000000
Si      -1.39743929      -1.37171575      -1.31142500       0.00000000
Si       2.56409326      -2.63593379      -0.02975870       0.00000000
Si      -2.71761348       2.61951347      -0.08177807       0.00000000
Si      -0.11361624       2.72836325       2.62699288       0.00000000
Si       2.62304678       0.04777857      -2.75941909       0.00000000
Si      -0.00092527      -2.65922849       2.74786571       0.00000000
Si      -0.07536080      -2.70537806      -2.71784444       0.00000000
