10
Lattice="16.290000149 0.0 0.0 0.0 16.290000149 0.0 0.0 0.0 29.1751946751" Properties=species:S:1:pos:R:3:initial_magmoms:R:1 pbc="T T T"
Si      -1.67023652      -0.78317434       1.44636028       0.00000000
Si      -0.52423501       0.67546486      -2.22951003       0.00000000
Si       1.10762553       1.70844635       1.24753132       0.00000000
Si       1.41435646      -1.94880530      -0.00440545       0.00000000
H       -2.85196200      -1.31971807       0.39456533       0.00000000
Si       2.46339989       0.30006180       2.56108611       0.00000000
Si       0.89929272      -2.85830859      -2.09737557       0.00000000
Si       3.47105043      -0.94014478       0.71814742       0.00000000
Si      -0.53058811      -2.28483542       2.82902381       0.00000000
H        2.86656110      -0.37773252      -2.38478041       0.00000000
