10
Lattice="16.290000149 0.0 0.0 0.0 16.290000149 0.0 0.0 0.0 29.1751946751" Properties=species:S:1:pos:R:3:initial_magmoms:R:1 pbc="T T T"
H       -1.18172548      -0.53654373      -1.05179494       0.00000000
Si      -1.53771085       1.27187434       1.19752504       0.00000000
Si       1.13964841      -1.50166108       1.38266353       0.00000000
Si       1.67023652       0.78317434      -1.44636028       0.00000000
Si      -2.47917512      -1.08735751      -1.97125120       0.00000000
Si       3.08459298      -1.16563096      -1.45076573       0.00000000
Si      -0.14232573       2.59330286       2.56269658       0.00000000
Si       2.64606617      -0.11648979       2.55004330       0.00000000
Si       2.77786205       2.49162068      -0.19882895       0.00000000
Si       2.40281086      -2.92895832       0.05569545       0.00000000
