10
Lattice="16.290000149 0.0 0.0 0.0 16.290000149 0.0 0.0 0.0 29.1751946751" Properties=species:S:1:pos:R:3:initial_magmoms:R:1 pbc="T T T"
Si       1.34128603      -1.35542575      -1.34420479       0.00000000
Si       1.30398193       1.18423414       1.55323923       0.00000000
Si      -1.32150997      -1.40318803       1.34278104       0.00000000
Si      -1.21520143       1.41475393      -1.44973147       0.00000000
Si      -0.16316064      -2.64106514      -2.62905119       0.00000000
Si       0.40177656       2.90219710      -2.38864758       0.00000000
Si      -2.70356987      -0.04673601       2.66709856       0.00000000
Si      -2.69720048       2.71366283      -0.11035663       0.00000000
Si      -2.73456975      -2.69936705      -0.00068153       0.00000000
Si      -0.01651806       2.67314377       2.76153867       0.00000000
