10
Lattice="16.290000149 0.0 0.0 0.0 16.290000149 0.0 0.0 0.0 29.1751946751" Properties=species:S:1:pos:R:3:initial_magmoms:R:1 pbc="T T T"
Si       2.20362977      -0.38146293       0.80465187       0.00000000
Si       0.04932612       2.29416959       0.66682825       0.00000000
Si       0.14388957      -0.41656788      -2.35872696       0.00000000
Si      -1.52221906      -1.37349136       1.28189970       0.00000000
H       -2.16586955      -0.21628233      -1.44032101       0.00000000
H       -0.87094486       2.45682524      -1.87491471       0.00000000
Si       0.48783663       2.04634982       2.95023011       0.00000000
Si      -0.71737903       1.66104245      -3.15077515       0.00000000
Si       2.12081141       0.31095981       3.03433111       0.00000000
Si       2.44437968      -0.35609940      -2.81079661       0.00000000
