10
Lattice="16.290000149 0.0 0.0 0.0 16.290000149 0.0 0.0 0.0 29.1751946751" Properties=species:S:1:pos:R:3:initial_magmoms:R:1 pbc="T T T"
Si      -1.06137496       1.72289558      -1.17380561       0.00000000
Si       1.33231839      -1.27648441      -1.44405544       0.00000000
Si       1.76539619       1.03177603       1.14801474       0.00000000
Si      -1.32064660      -1.27154854       1.49146513       0.00000000
H       -1.92098198       0.97489135      -2.31840684       0.00000000
H       -3.15784911      -0.58997494      -1.43422340       0.00000000
Si      -2.31539546       0.50510403       2.74999550       0.00000000
Si       3.41554062      -0.61928065       1.24262989       0.00000000
Si       2.74400166      -2.49551399      -0.05525782       0.00000000
Si       0.04220739      -2.69607647      -2.74993715       0.00000000
