10
Lattice="16.290000149 0.0 0.0 0.0 16.290000149 0.0 0.0 0.0 29.1751946751" Properties=species:S:1:pos:R:3:initial_magmoms:R:1 pbc="T T T"
Si      -1.45264447       1.43044120       1.13010117       0.00000000
Si      -1.36278883      -1.31914792      -1.38383783       0.00000000
Si       1.34330599       1.32460507      -1.41003716       0.00000000
Si       1.32237334      -1.32631552       1.43766607       0.00000000
H       -0.75601891       2.25844562       2.17343530       0.00000000
Si      -2.70816365      -2.66305664      -0.02529489       0.00000000
Si       2.70677900      -2.68273496       0.08291590       0.00000000
Si       2.74590759       2.64722276      -0.08589177       0.00000000
Si       0.00268785      -2.68508072      -2.71165929       0.00000000
Si       2.73243576      -0.00667890      -2.72542999       0.00000000
