10
Lattice="16.290000149 0.0 0.0 0.0 16.290000149 0.0 0.0 0.0 29.1751946751" Properties=species:S:1:pos:R:3:initial_magmoms:R:1 pbc="T T T"
Si      -1.37873674      -1.36303318      -1.30442295       0.00000000
Si      -1.38810349       1.31266450       1.35652985       0.00000000
Si       1.32856354      -1.37169946       1.37132168       0.00000000
Si       1.32486571       1.38728899      -1.38208732       0.00000000
Si      -2.69562035       0.02839347      -2.64546078       0.00000000
Si      -0.01731627       2.67300983       2.68114204       0.00000000
Si       2.69068448      -0.01226637       2.69934736       0.00000000
Si      -0.05110173      -2.72214047      -2.66973454       0.00000000
Si       2.75028960       0.02704140      -2.65150004       0.00000000
Si       2.69592986      -2.71681364       0.02433211       0.00000000
