10
Lattice="16.290000149 0.0 0.0 0.0 16.290000149 0.0 0.0 0.0 29.1751946751" Properties=species:S:1:pos:R:3:initial_magmoms:R:1 pbc="T T T"
Si      -0.08281836       0.69242275       2.22967924       0.00000000
Si       0.72972685      -2.19005694      -0.40235511       0.00000000
Si       1.93878695       1.02817594      -0.90084249       0.00000000
Si      -2.20362977       0.38146293      -0.80465187       0.00000000
H        2.45153099      -0.25430319       1.49382832       0.00000000
Si       2.63031374      -1.64194894       0.88348325       0.00000000
Si      -2.15430365       2.67563252      -0.13782362       0.00000000
Si       1.46189719      -1.84537194      -2.66392868       0.00000000
Si       1.01041984       2.07094772      -2.73488275       0.00000000
Si       0.24074991       0.02536353      -3.61544847       0.00000000
