10
Lattice="16.290000149 0.0 0.0 0.0 16.290000149 0.0 0.0 0.0 29.1751946751" Properties=species:S:1:pos:R:3:initial_magmoms:R:1 pbc="T T T"
Si       0.85960702       0.74800423       1.14460124       0.00000000
Si      -0.92129725      -1.22160340      -0.54286285       0.00000000
H       -1.23686713      -1.56486628       0.88418345       0.00000000
Si       2.04012492       1.94109540      -0.43357257       0.00000000
Si      -2.28364625       0.19802124      -1.76676226       0.00000000
Si       0.64930312      -2.36022554      -1.83441954       0.00000000
Si      -0.65127421       2.01549330       2.33880031       0.00000000
Si       1.92098198      -0.97489135       2.31840684       0.00000000
Si      -0.87879664       1.75883132      -2.95976515       0.00000000
Si       0.50714028       3.17959137      -1.68632625       0.00000000
