10
Lattice="16.290000149 0.0 0.0 0.0 16.290000149 0.0 0.0 0.0 29.1751946751" Properties=species:S:1:pos:R:3:initial_magmoms:R:1 pbc="T T T"
Si      -0.63965944       0.38672460      -2.15155391       0.00000000
Si       1.48641364      -1.80131564       0.12504488       0.00000000
Si       0.96659974       2.00769365       0.86449019       0.00000000
Si      -2.12398796      -0.58209058       1.00811968       0.00000000
H        0.08710263      -0.81801865       2.58045844       0.00000000
H        0.73425547      -1.24634791       2.62162464       0.00000000
H        2.27320436       1.55763352       1.48910194       0.00000000
H        2.88365583       1.40341609      -0.81124546       0.00000000
Si      -2.34934382       1.55246959       1.91902761       0.00000000
Si      -0.17643699      -3.32138442       0.85614609       0.00000000
