10
Lattice="16.290000149 0.0 0.0 0.0 16.290000149 0.0 0.0 0.0 29.1751946751" Properties=species:S:1:pos:R:3:initial_magmoms:R:1 pbc="T T T"
H        1.19708695       0.36584082       0.88943498       0.00000000
Si       0.84970270       1.48713040      -1.63141854       0.00000000
Si      -0.77018143      -2.11473524       1.17683983       0.00000000
Si       0.54235926      -2.38251026      -0.73576923       0.00000000
Si      -2.19370916       1.41903820       1.04470537       0.00000000
H        2.59946048      -1.66457738       1.34637688       0.00000000
Si      -3.41656689      -0.16868295      -0.36804508       0.00000000
H       -1.88632500      -1.57082842      -2.46991363       0.00000000
Si      -0.25511769      -1.20523195       3.26980994       0.00000000
Si       1.27540927       3.29913228      -0.14581762       0.00000000
