10
Lattice="16.290000149 0.0 0.0 0.0 16.290000149 0.0 0.0 0.0 29.1751946751" Properties=species:S:1:pos:R:3:initial_magmoms:R:1 pbc="T T T"
Si       1.33850044       1.36212094       1.36717880       0.00000000
Si      -1.35230459       1.35948196      -1.35828036       0.00000000
Si      -1.35850293      -1.35138583       1.36116871       0.00000000
Si       1.36850662      -1.35382933      -1.35054894       0.00000000
Si      -2.68273303       2.70891299       0.03264704       0.00000000
Si       2.70482420       0.00462636       2.69625479       0.00000000
Si       2.69967656       2.70567128       0.01689244       0.00000000
Si       0.00742824      -2.70767495      -2.70369447       0.00000000
Si      -2.71217099      -2.70461243       0.00192556       0.00000000
Si       2.71581995      -2.71373483       0.01686326       0.00000000
