10
Lattice="16.290000149 0.0 0.0 0.0 16.290000149 0.0 0.0 0.0 29.1751946751" Properties=species:S:1:pos:R:3:initial_magmoms:R:1 pbc="T T T"
Si       1.80946064       1.32663318       0.60652312       0.00000000
Si      -0.73217035      -0.34468500       2.26157357       0.00000000
Si      -1.22114728       1.87073547      -0.95151980       0.00000000
Si       1.61419240      -1.53086091      -1.07487252       0.00000000
H        0.71768854      -2.51990827       0.98994353       0.00000000
H       -1.17903763      -2.94590806      -0.25361997       0.00000000
Si      -0.26935515      -2.87431351      -1.46949621       0.00000000
Si       0.47688975       2.87354788       1.76308619       0.00000000
Si      -1.46189719       1.84537194       2.66392868       0.00000000
Si      -1.16040187      -1.45204989      -3.05919421       0.00000000
