10
Lattice="16.290000149 0.0 0.0 0.0 16.290000149 0.0 0.0 0.0 29.1751946751" Properties=species:S:1:pos:R:3:initial_magmoms:R:1 pbc="T T T"
H        0.64715284      -0.42832926       0.04116620       0.00000000
H       -1.14815179      -1.63080820       1.12210716       0.00000000
Si      -1.87022234      -1.71331706      -0.20017101       0.00000000
Si       0.85222765       1.74462644       1.75147446       0.00000000
Si      -0.08710263       0.81801865      -2.58045844       0.00000000
Si      -2.21109059       0.23592807      -1.57233877       0.00000000
Si       2.63261063       0.19277586       1.13039292       0.00000000
Si       1.39931101      -0.98329699      -2.45541356       0.00000000
Si      -0.26353962      -2.50336577      -1.72431236       0.00000000
Si      -0.37300842       3.06520788       0.23214702       0.00000000
