10
Lattice="16.290000149 0.0 0.0 0.0 16.290000149 0.0 0.0 0.0 29.1751946751" Properties=species:S:1:pos:R:3:initial_magmoms:R:1 pbc="T T T"
Si       1.38593692       1.42076006       1.27343890       0.00000000
Si      -1.26684073       1.39685122      -1.42401208       0.00000000
Si       1.42250797      -1.28500408      -1.40854922       0.00000000
Si      -1.40484961      -1.56081007       1.19300289       0.00000000
H        0.87879664      -1.75883132       2.95976515       0.00000000
Si      -2.59247207      -2.72802116      -0.40804427       0.00000000
Si      -2.59030550       2.79132411      -0.05887554       0.00000000
Si      -0.04250061      -2.98043472       2.41690230       0.00000000
Si      -2.57460194       0.08768222      -2.87749110       0.00000000
Si       2.91892156       0.18226409       2.52619258       0.00000000
