10
Lattice="16.290000149 0.0 0.0 0.0 16.290000149 0.0 0.0 0.0 29.1751946751" Properties=species:S:1:pos:R:3:initial_magmoms:R:1 pbc="T T T"
Si       1.32059773      -1.43910748       1.27904053       0.00000000
Si      -1.34833960      -1.35979147      -1.34979038       0.00000000
Si       1.36687762       1.35720136      -1.33852876       0.00000000
Si      -1.28915803       1.37132479       1.41015386       0.00000000
Si       2.74108575      -0.03562623       2.45398397       0.00000000
Si      -2.66297519       2.72227079       0.06301842       0.00000000
Si      -0.06889041      -2.77448025       2.61287208       0.00000000
Si       0.00708615       2.70821252      -2.68254245       0.00000000
Si      -2.71466336      -0.00229689      -2.67886638       0.00000000
Si       0.02793735      -2.72290610      -2.68201730       0.00000000
