10
Lattice="16.290000149 0.0 0.0 0.0 16.290000149 0.0 0.0 0.0 29.1751946751" Properties=species:S:1:pos:R:3:initial_magmoms:R:1 pbc="T T T"
Si      -1.22523607       1.32058144      -1.51932744       0.00000000
Si       1.34109055       1.45547893       1.29327803       0.00000000
Si      -1.61728750      -1.02887641       1.39632482       0.00000000
Si       1.78038299      -1.55185057      -0.62108154       0.00000000
H       -0.85222765      -1.74462644      -1.75147446       0.00000000
H       -0.20507481      -2.17295570      -1.71030826       0.00000000
H        1.33387408       0.63102574      -2.84283097       0.00000000
Si      -0.05185107      -2.30993831       2.52234146       0.00000000
Si       1.01788066      -3.42133986       0.65702538       0.00000000
Si       0.02726946       1.08108586      -3.46744271       0.00000000
