10
Lattice="16.28999089631971 0.0 0.0 0.0 16.28999089631971 0.0 0.0 0.0 34.31052061344573" Properties=species:S:1:pos:R:3:initial_magmoms:R:1 pbc="T T T"
Si      -1.37154307      -1.34459763       1.38640657       0.00000000
Si       1.34374581       1.37313541       1.38788192       0.00000000
Si      -1.35591118       1.42489363      -1.34239644       0.00000000
Si       1.29881799      -1.61023866      -1.52072204       0.00000000
Si       2.69078220      -2.72033700       0.02065494       0.00000000
Si       2.70360243       2.70823123       0.01257824       0.00000000
Si      -2.72418389      -2.70310218       0.01819488       0.00000000
Si       2.69731449       0.01693858       2.74695671       0.00000000
Si      -0.01700676      -2.69815002       2.74692240       0.00000000
Si      -2.74309658       2.73120013       0.02791162       0.00000000
