10
Lattice="16.28999089631971 0.0 0.0 0.0 16.28999089631971 0.0 0.0 0.0 34.31052061344573" Properties=species:S:1:pos:R:3:initial_magmoms:R:1 pbc="T T T"
Si       0.11479563      -0.69748893      -2.20548150       0.00000000
Si      -0.68455793       2.23368480       0.13418852       0.00000000
Si      -1.81360547      -1.26021069       0.95304386       0.00000000
Si       2.34046575      -0.47827440       0.37597489       0.00000000
Si      -1.44758641       2.06868339       2.27550931       0.00000000
Si      -0.41405759      -2.92447854      -1.68986271       0.00000000
Si       1.27961208       3.47230051       0.02549273       0.00000000
Si      -0.71250994      -2.97634590       2.09064412       0.00000000
Si       3.44792511       0.78077970      -1.38841030       0.00000000
Si       2.67307497      -2.70337437      -0.30296207       0.00000000
