10
Lattice="16.28999089631971 0.0 0.0 0.0 16.28999089631971 0.0 0.0 0.0 34.31052061344573" Properties=species:S:1:pos:R:3:initial_magmoms:R:1 pbc="T T T"
Si       1.35509994       1.35658233       1.35794254       0.00000000
Si      -1.35726651      -1.35646667       1.35787392       0.00000000
Si       1.35752715      -1.35754181      -1.35694754       0.00000000
Si      -1.35834165       1.35861858      -1.35674167       0.00000000
Si      -2.71466334      -0.00218286       2.71217955       0.00000000
Si      -0.00285075       2.71430496      -2.71269421       0.00000000
Si       0.00658116       2.71362078       2.71440973       0.00000000
Si       2.71394658      -2.71454374       0.00078914       0.00000000
Si       0.00342090      -2.71660904       2.71211093       0.00000000
Si      -0.00123804      -2.71465251      -2.71434111       0.00000000
