10
Lattice="16.28999089631971 0.0 0.0 0.0 16.28999089631971 0.0 0.0 0.0 34.31052061344573" Properties=species:S:1:pos:R:3:initial_magmoms:R:1 pbc="T T T"
Si      -1.26574815       1.44599325       1.29261528       0.00000000
Si       1.34391360       1.35224430      -1.36360378       0.00000000
Si      -1.36873135      -1.36349432      -1.35807979       0.00000000
Si       1.41133791      -1.39295368       1.33917468       0.00000000
Si      -2.18367680      -0.21679058       2.60729223       0.00000000
Si       2.69121063       2.70749085       0.02394876       0.00000000
Si       2.70131043      -0.00203951      -2.71790941       0.00000000
Si      -0.01473430       2.70991806      -2.71646837       0.00000000
Si      -0.01212302      -2.71716778      -2.71859562       0.00000000
Si       2.71541757      -2.72995543      -0.01410163       0.00000000
