10
Lattice="16.28999089631971 0.0 0.0 0.0 16.28999089631971 0.0 0.0 0.0 34.31052061344573" Properties=species:S:1:pos:R:3:initial_magmoms:R:1 pbc="T T T"
Si       1.60656867      -1.03980210      -1.31515730       0.00000000
Si       0.31838805       0.40720113       2.28089606       0.00000000
Si      -1.12115925       1.68520050      -1.30232516       0.00000000
Si      -0.77564835      -1.81330832       1.68584837       0.00000000
Si       2.45702070       1.19048949       1.67926075       0.00000000
Si      -2.40103197      -2.41524404       0.01290076       0.00000000
Si      -1.39458690       2.06158095       2.51434498       0.00000000
Si       0.24962796      -2.38447223      -2.68994632       0.00000000
Si      -2.46845628       0.32995395      -2.68987770       0.00000000
Si       2.80759779      -2.44114514       0.22415076       0.00000000
