10
Lattice="16.28999089631971 0.0 0.0 0.0 16.28999089631971 0.0 0.0 0.0 34.31052061344573" Properties=species:S:1:pos:R:3:initial_magmoms:R:1 pbc="T T T"
Si      -2.32499025       0.46015992       0.01104799       0.00000000
Si       1.49556861       1.75153338       0.60266463       0.00000000
Si      -0.10894752      -2.17446155       1.02221391       0.00000000
Si      -0.88228269       0.90847701      -2.84125580       0.00000000
Si       2.45416995       2.24885079      -1.46104572       0.00000000
Si      -3.23270163      -1.38327024      -1.23679203       0.00000000
Si       0.03922632      -3.52755782      -1.21352948       0.00000000
Si       1.95364341      -2.33819234       2.15583415       0.00000000
Si      -1.35532800      -2.10905720       3.10894663       0.00000000
Si       3.40420275       1.10180673       1.78342755       0.00000000
