10
Lattice="16.28999089631971 0.0 0.0 0.0 16.28999089631971 0.0 0.0 0.0 34.31052061344573" Properties=species:S:1:pos:R:3:initial_magmoms:R:1 pbc="T T T"
Si       0.10739997       0.16798248      -2.35497252       0.00000000
Si       0.70628553      -2.24853965       0.42442138       0.00000000
Si      -2.31203970       0.61079355       0.14225150       0.00000000
Si       1.43523045       1.72496439       0.99617221       0.00000000
Si      -1.74591333       1.58824242      -2.22744024       0.00000000
Si      -0.44779581      -2.11176392      -2.65735131       0.00000000
Si       2.63953386       0.08770536       2.31160400       0.00000000
Si      -0.84989817      -3.64522049      -0.88504037       0.00000000
Si      -3.11332851       0.69253677       2.40866851       0.00000000
Si      -0.17487315       3.06405126       2.57129742       0.00000000
