10
Lattice="16.28999089631971 0.0 0.0 0.0 16.28999089631971 0.0 0.0 0.0 34.31052061344573" Properties=species:S:1:pos:R:3:initial_magmoms:R:1 pbc="T T T"
Si      -1.35669636       1.35796698       1.35749651       0.00000000
Si       1.35793440      -1.35764118       1.35766806       0.00000000
Si      -1.35948195      -1.35848826      -1.35571236       0.00000000
Si       1.35752715       1.35785295      -1.35986393       0.00000000
Si      -0.00166158      -2.71011843      -2.71876717       0.00000000
Si      -2.71410948      -0.00043983      -2.71478715       0.00000000
Si      -2.71497285      -2.71417464       0.00024017       0.00000000
Si      -2.71427238       2.71531494      -0.00027448       0.00000000
Si       0.00084708       2.71463076       2.71540474       0.00000000
Si       2.71559187      -2.71453302      -0.00006862       0.00000000
