10
Lattice="16.28999089631971 0.0 0.0 0.0 16.28999089631971 0.0 0.0 0.0 34.31052061344573" Properties=species:S:1:pos:R:3:initial_magmoms:R:1 pbc="T T T"
Si      -1.33379262      -1.91811492       0.07788493       0.00000000
Si      -0.65251224       1.82482209       1.32366631       0.00000000
Si      -1.14955272       0.81857250      -1.89425059       0.00000000
Si       2.34747045      -0.19003914      -0.21831796       0.00000000
Si      -2.83846734       0.93957462       1.76308140       0.00000000
Si      -1.16194941      -2.41206030      -2.26312320       0.00000000
Si       2.80803762       0.73867005      -2.30017859       0.00000000
Si       3.17646855       1.07391825       1.58693109       0.00000000
Si      -3.13559694      -1.35656604       1.45562465       0.00000000
Si      -0.32812947       2.98294335      -2.19625196       0.00000000
