10
Lattice="16.28999089631971 0.0 0.0 0.0 16.28999089631971 0.0 0.0 0.0 34.31052061344573" Properties=species:S:1:pos:R:3:initial_magmoms:R:1 pbc="T T T"
Si       1.85235219      -1.43366661      -0.06934160       0.00000000
Si      -0.78812649       0.00830790      -2.25958922       0.00000000
Si      -1.54434087      -0.93615372       1.57035910       0.00000000
Si       0.33801750       2.28547071       0.64634195       0.00000000
Si       1.98985608       1.32137964      -2.09510449       0.00000000
Si      -3.30041916       0.03236823       0.28635577       0.00000000
Si      -2.97408159      -0.87693957      -1.82017414       0.00000000
Si       2.43434502       2.78314650      -0.29959963       0.00000000
Si       3.04085430      -0.74259594      -1.99632445       0.00000000
Si      -1.18423413       3.47651406      -0.63416171       0.00000000
