10
Lattice="16.28999089631971 0.0 0.0 0.0 16.28999089631971 0.0 0.0 0.0 34.31052061344573" Properties=species:S:1:pos:R:3:initial_magmoms:R:1 pbc="T T T"
Si      -0.92362671      -1.90454535      -0.83975046       0.00000000
Si      -1.03187376       2.02154013      -0.49184159       0.00000000
Si       1.99256022       0.55034136      -1.19448713       0.00000000
Si      -0.65560734      -0.17594829       2.29259596       0.00000000
Si       2.21161185       2.47425552       0.16503370       0.00000000
Si       0.11924280       3.30820578       1.20714772       0.00000000
Si       2.51848287      -2.33108271       0.83165317       0.00000000
Si      -0.25949970      -3.64415445       0.66716845       0.00000000
Si      -3.21388668       1.82993715       0.39007653       0.00000000
Si      -0.98821656       2.04915168       2.97153292       0.00000000
