10
Lattice="16.28999089631971 0.0 0.0 0.0 16.28999089631971 0.0 0.0 0.0 34.31052061344573" Properties=species:S:1:pos:R:3:initial_magmoms:R:1 pbc="T T T"
Si      -1.72206477      -0.83093661       1.36613388       0.00000000
Si      -1.62305415      -0.08518041      -1.87905102       0.00000000
Si       2.00083554      -1.47176892      -0.47249044       0.00000000
Si       0.93041964       2.02571037       1.36691959       0.00000000
Si      -0.31553730      -1.96623558       2.84276688       0.00000000
Si       0.11155392       0.77403564      -3.41921684       0.00000000
Si       2.35761912       0.30128355      -2.66630636       0.00000000
Si      -2.43030510      -2.66409918      -0.08732032       0.00000000
Si       1.11149928      -3.17650113       1.37386748       0.00000000
Si       2.38097898       0.76424535       2.81855393       0.00000000
