10
Lattice="16.28999089631971 0.0 0.0 0.0 16.28999089631971 0.0 0.0 0.0 34.31052061344573" Properties=species:S:1:pos:R:3:initial_magmoms:R:1 pbc="T T T"
Si      -0.98976411      -1.68541227      -1.36432430       0.00000000
Si       0.17510121      -0.63483759       2.30608000       0.00000000
Si       1.74280194       0.95285097      -1.37839163       0.00000000
Si      -1.84044420       1.58068779       0.08330599       0.00000000
Si       2.57513949      -1.03619061       2.23804220       0.00000000
Si      -2.16174816      -0.35824968      -2.94291793       0.00000000
Si      -2.85252561      -2.49077358      -0.03897677       0.00000000
Si       0.54177282       2.35419400      -2.91769968       0.00000000
Si       2.86042626       2.54046690       0.04312835       0.00000000
Si      -1.25366211      -2.53260630       2.61387985       0.00000000
