10
Lattice="16.28999089631971 0.0 0.0 0.0 16.28999089631971 0.0 0.0 0.0 34.31052061344573" Properties=species:S:1:pos:R:3:initial_magmoms:R:1 pbc="T T T"
Si      -2.37635262       0.13797630      -0.09486864       0.00000000
Si       1.42876332       1.89776871      -0.30779985       0.00000000
Si       0.79548957      -1.29937185       1.87754136       0.00000000
Si      -1.59886350       0.04183272      -2.65285663       0.00000000
Si      -2.46883095       2.18543382       1.30181050       0.00000000
Si       2.94958143      -1.84301802       0.99411358       0.00000000
Si       1.25366211       2.53260630      -2.61387985       0.00000000
Si       1.28058948       3.25086498       1.92794354       0.00000000
Si      -0.56562138      -3.12196221       2.50384595       0.00000000
Si       0.26389800       0.84719403      -3.97820416       0.00000000
