10
Lattice="16.28999089631971 0.0 0.0 0.0 16.28999089631971 0.0 0.0 0.0 34.31052061344573" Properties=species:S:1:pos:R:3:initial_magmoms:R:1 pbc="T T T"
Si      -1.23616665       1.97245870      -0.61079623       0.00000000
Si      -1.15111656      -1.28666565      -1.69898931       0.00000000
Si       1.35537687       1.24160751       1.59417061       0.00000000
Si      -1.10745936      -1.25905410       1.76438520       0.00000000
Si       2.09236905      -0.83395026      -1.04211402       0.00000000
Si      -0.11924280      -3.30820578      -1.20714772       0.00000000
Si       2.26474983      -0.61292754       2.67725142       0.00000000
Si      -0.32749416       2.33252993       2.82667382       0.00000000
Si      -0.77485014      -3.48415407       1.08544824       0.00000000
Si       3.10827861      -1.88533944       0.84688705       0.00000000
