10
Lattice="16.28999089631971 0.0 0.0 0.0 16.28999089631971 0.0 0.0 0.0 34.31052061344573" Properties=species:S:1:pos:R:3:initial_magmoms:R:1 pbc="T T T"
Si       0.11606625       1.05980364      -2.09088429       0.00000000
Si      -1.93712535      -0.91305450       1.16554760       0.00000000
Si       0.82000602       1.96359401       1.28061486       0.00000000
Si       1.82444742      -1.77135831      -0.08258547       0.00000000
Si      -0.54516114      -2.02315284       2.70692459       0.00000000
Si       2.18470077       0.71553825       2.72398379       0.00000000
Si      -1.44011745      -0.33687720      -3.40034605       0.00000000
Si       0.71754192      -3.44606805       1.24305854       0.00000000
Si       3.52456956      -0.66095046       1.38204711       0.00000000
Si       2.04931458       3.39604865      -0.20370167       0.00000000
