10
Lattice="16.28999089631971 0.0 0.0 0.0 16.28999089631971 0.0 0.0 0.0 34.31052061344573" Properties=species:S:1:pos:R:3:initial_magmoms:R:1 pbc="T T T"
Si      -0.93214638       0.71906210       2.02469926       0.00000000
Si       1.43404128       1.75815396      -0.58252434       0.00000000
Si       1.23616665      -1.97245870       0.61079623       0.00000000
Si      -1.84153563      -0.11098854      -1.55159123       0.00000000
Si       0.08505009      -3.25912435      -1.08819308       0.00000000
Si       2.59154352      -0.73085119       2.20496684       0.00000000
Si       0.90867249       0.36007123       3.43747005       0.00000000
Si      -2.89631639      -0.51955360       2.13339505       0.00000000
Si       1.92743280       1.47704232      -2.84441237       0.00000000
Si       0.17614377       3.62223495      -1.17496444       0.00000000
