10
Lattice="16.28999089631971 0.0 0.0 0.0 16.28999089631971 0.0 0.0 0.0 34.31052061344573" Properties=species:S:1:pos:R:3:initial_magmoms:R:1 pbc="T T T"
Si      -0.85139685      -2.07510002       0.70906162       0.00000000
Si       2.34279522       0.30177225       0.18441915       0.00000000
Si      -1.40414913       0.63591273      -1.90440651       0.00000000
Si      -2.28672504      -0.58466439       2.04151143       0.00000000
Si      -0.35575731      -3.20075547      -1.40807024       0.00000000
Si       0.16496883      -0.11639205      -3.62185489       0.00000000
Si       3.20461767      -1.47393549      -1.17242546       0.00000000
Si      -3.49102845       1.05259464       0.72607964       0.00000000
Si      -0.96510105       0.59753349       3.59818203       0.00000000
Si       2.45351835      -0.32483889      -3.09522242       0.00000000
