10
Lattice="16.28999089631971 0.0 0.0 0.0 16.28999089631971 0.0 0.0 0.0 34.31052061344573" Properties=species:S:1:pos:R:3:initial_magmoms:R:1 pbc="T T T"
Si       1.35327546      -1.35123921       1.36247153       0.00000000
Si       1.31978322       1.38135942      -1.36663683       0.00000000
Si      -1.36221867       1.36300059       1.35766806       0.00000000
Si      -1.35922131      -1.34781831      -1.38748392       0.00000000
Si       2.70624141      -2.70699075      -0.00298502       0.00000000
Si      -2.72140740      -2.70497079      -0.00123518       0.00000000
Si      -0.00415395      -2.70938538       2.71746337       0.00000000
Si       2.71047681       0.00547344       2.71801234       0.00000000
Si       2.70045846       2.72943837       0.00977850       0.00000000
Si      -2.71974582       0.00514764       2.71753199       0.00000000
