10
Lattice="16.28999089631971 0.0 0.0 0.0 16.28999089631971 0.0 0.0 0.0 34.31052061344573" Properties=species:S:1:pos:R:3:initial_magmoms:R:1 pbc="T T T"
Si      -2.26655199      -0.28023687       0.50587460       0.00000000
Si       1.25604045       1.08796023       1.65345922       0.00000000
Si       0.01982493       1.21166649      -2.01114660       0.00000000
Si       0.71333910      -2.25305524      -0.18922263       0.00000000
Si       3.10935375      -0.33229971       1.52592695       0.00000000
Si      -2.81278520      -2.00003244      -1.05896050       0.00000000
Si      -1.25083091      -3.49167095      -0.08052684       0.00000000
Si      -3.22456382       1.85609889       0.21999918       0.00000000
Si      -1.90662232       0.72251037      -3.24265480       0.00000000
Si       2.55415797      -2.61204611       1.22354816       0.00000000
