10
Lattice="16.28999089631971 0.0 0.0 0.0 16.28999089631971 0.0 0.0 0.0 34.31052061344573" Properties=species:S:1:pos:R:3:initial_magmoms:R:1 pbc="T T T"
Si      -1.35151614      -1.33410213      -1.37173538       0.00000000
Si      -1.47849669       1.25231004       1.32644547       0.00000000
Si       1.36067112       1.38565998      -1.36648587       0.00000000
Si       1.36247931      -1.37099898       1.47332889       0.00000000
Si       0.41607918       2.12706675       2.47859339       0.00000000
Si       2.25671886       0.44057934       2.78508945       0.00000000
Si      -2.70352098      -2.68626987       0.00686211       0.00000000
Si       2.71542897      -2.68208334      -0.00216156       0.00000000
Si       0.00257382      -2.68788258      -2.72724188       0.00000000
Si      -2.71122615       0.02365308      -2.72569790       0.00000000
