10
Lattice="16.28999089631971 0.0 0.0 0.0 16.28999089631971 0.0 0.0 0.0 34.31052061344573" Properties=species:S:1:pos:R:3:initial_magmoms:R:1 pbc="T T T"
Si      -1.51102782      -1.09752246       1.41359424       0.00000000
Si       1.53694521       0.88922223      -1.62038386       0.00000000
Si      -1.04772393      -1.70411319      -1.51662879       0.00000000
Si      -1.76248026       1.99101267      -0.32488650       0.00000000
Si       1.36381509       0.19922670       2.62794717       0.00000000
Si       0.03129309       3.25728324       1.40676644       0.00000000
Si       2.39526531       2.10623184       1.66999690       0.00000000
Si      -0.35963433      -2.99534004       2.03272793       0.00000000
Si       0.29717847       2.39549337      -2.94761847       0.00000000
Si      -2.42284428      -0.34510365      -2.93451185       0.00000000
