10
Lattice="16.28999089631971 0.0 0.0 0.0 16.28999089631971 0.0 0.0 0.0 34.31052061344573" Properties=species:S:1:pos:R:3:initial_magmoms:R:1 pbc="T T T"
Si       1.47849669      -1.25231004      -1.32644547       0.00000000
Si      -1.23976674       1.50627114      -1.32723461       0.00000000
Si       1.89457587       0.87475671       1.15214793       0.00000000
Si      -1.53694521      -0.88922223       1.62038386       0.00000000
Si       0.85832010       1.21700961       3.29038077       0.00000000
Si      -2.58466914      -2.59333542       0.10375507       0.00000000
Si      -3.29942547       1.10179044       1.29549736       0.00000000
Si      -2.59216254       0.13054806      -2.69114719       0.00000000
Si       0.12698055      -2.58641217      -2.69818085       0.00000000
Si       2.84097600      -2.62330902       0.14688342       0.00000000
