10
Lattice="16.28999089631971 0.0 0.0 0.0 16.28999089631971 0.0 0.0 0.0 34.31052061344573" Properties=species:S:1:pos:R:3:initial_magmoms:R:1 pbc="T T T"
Si      -1.00473462      -1.62217449      -1.26050061       0.00000000
Si      -0.70669278      -0.80915688       2.09369776       0.00000000
Si      -1.59760917       1.79984952      -0.54663552       0.00000000
Si       0.20834910      -1.72799433      -3.29494407       0.00000000
Si       1.19407329      -1.92477753       2.96027906       0.00000000
Si      -1.61147196       2.91592629       1.73470658       0.00000000
Si      -3.32105859      -1.39471722      -1.14185476       0.00000000
Si      -1.50724854       1.12225068       3.34236123       0.00000000
Si       3.11456655       2.05773651      -0.89063299       0.00000000
Si       3.60900063       0.80907543       1.35011974       0.00000000
