10
Lattice="16.28999089631971 0.0 0.0 0.0 16.28999089631971 0.0 0.0 0.0 34.31052061344573" Properties=species:S:1:pos:R:3:initial_magmoms:R:1 pbc="T T T"
Si       1.23683992       1.19527875       1.57529779       0.00000000
Si       0.90853126      -1.98012673      -0.87008098       0.00000000
Si      -1.32433320      -1.38490642       1.58456164       0.00000000
Si       1.23200504       1.37722828      -2.22778335       0.00000000
Si       2.03768564      -0.87379138      -2.60135651       0.00000000
Si      -2.58042252       2.29207956      -0.00048035       0.00000000
Si       2.12514665       3.07408101       0.12478743       0.00000000
Si      -2.60811552      -2.79814537       0.11713618       0.00000000
Si      -0.15034548       2.50158525       2.94560586       0.00000000
Si      -1.08192171      -3.31075909      -1.72798172       0.00000000
