10
Lattice="16.28999089631971 0.0 0.0 0.0 16.28999089631971 0.0 0.0 0.0 34.31052061344573" Properties=species:S:1:pos:R:3:initial_magmoms:R:1 pbc="T T T"
Si       1.84370220       1.34385984      -0.36403483       0.00000000
Si      -1.09952613      -0.20266389      -2.08388494       0.00000000
Si       0.28114911      -2.34574371       0.11555790       0.00000000
Si      -0.95545737       0.27846126       2.20452080       0.00000000
Si      -1.39916439      -2.55606390      -1.88591313       0.00000000
Si       1.00251918       3.56371443      -0.50045353       0.00000000
Si      -2.95187832       1.23100272      -2.01454334       0.00000000
Si      -1.80573021      -1.92906180       2.74604405       0.00000000
Si       3.28193001       0.59627916      -2.09016377       0.00000000
Si       1.85026707      -3.09804849      -1.60189048       0.00000000
