10
Lattice="16.28999089631971 0.0 0.0 0.0 16.28999089631971 0.0 0.0 0.0 34.31052061344573" Properties=species:S:1:pos:R:3:initial_magmoms:R:1 pbc="T T T"
Si       1.69443041       1.61510952       0.08615377       0.00000000
Si      -1.82690462       0.01976629      -1.47724029       0.00000000
Si       0.80568059      -2.25101966      -0.37357316       0.00000000
Si      -1.23200504      -1.37722828       2.22778335       0.00000000
Si      -1.00934306      -2.15207420      -1.87620325       0.00000000
Si       0.89314160       1.69685274       2.35257078       0.00000000
Si      -0.32347379      -3.35735501       1.35770237       0.00000000
Si       0.00483487      -0.18194953       3.80308114       0.00000000
Si      -1.26203566       1.22436129      -3.43112260       0.00000000
Si       2.26055678       2.59255839      -2.28353798       0.00000000
