10
Lattice="16.28999089631971 0.0 0.0 0.0 16.28999089631971 0.0 0.0 0.0 34.31052061344573" Properties=species:S:1:pos:R:3:initial_magmoms:R:1 pbc="T T T"
Si      -0.34801956       1.87686864      -1.30242809       0.00000000
Si       2.25569259      -0.58528341       0.02470359       0.00000000
Si      -0.73212147      -0.39944709       2.19820766       0.00000000
Si      -1.18934919      -1.66816116      -1.42608328       0.00000000
Si       0.04614957      -2.62461222       2.08477702       0.00000000
Si      -2.50211142       2.42051481      -0.41900031       0.00000000
Si       2.26955538      -1.70136018      -2.25663851       0.00000000
Si      -1.24708095      -3.47266962       0.26611255       0.00000000
Si       2.35991601      -2.37895902       1.63235824       0.00000000
Si      -3.09001752      -0.38033892       2.18870364       0.00000000
