10
Lattice="16.28999089631971 0.0 0.0 0.0 16.28999089631971 0.0 0.0 0.0 34.31052061344573" Properties=species:S:1:pos:R:3:initial_magmoms:R:1 pbc="T T T"
Si      -0.87806358      -0.99963585       1.88412898       0.00000000
Si      -1.40398623       1.88178822      -0.14201132       0.00000000
Si      -0.97376733      -1.17369450      -1.79077000       0.00000000
Si       2.36485188      -0.16467561       0.22566042       0.00000000
Si       3.07278270       1.38249972      -1.35986393       0.00000000
Si       0.17293464      -3.06361143       1.98290903       0.00000000
Si      -0.43357464       0.46213101       3.67963384       0.00000000
Si      -3.39654645       1.33144686       1.05247581       0.00000000
Si      -0.19549629      -3.39885963      -1.90420065       0.00000000
Si      -3.33166338      -1.15458633      -1.80027402       0.00000000
