10
Lattice="16.28999089631971 0.0 0.0 0.0 16.28999089631971 0.0 0.0 0.0 34.31052061344573" Properties=species:S:1:pos:R:3:initial_magmoms:R:1 pbc="T T T"
Si       0.84118302      -2.21985459       0.13641871       0.00000000
Si      -1.52005248       0.45043479      -1.81368944       0.00000000
Si       1.87450659       1.24331796       0.87780085       0.00000000
Si      -1.50851916       0.59341212       1.97546364       0.00000000
Si       3.62255391      -0.30618684       0.42915623       0.00000000
Si       1.68166557       3.26358747      -0.23159614       0.00000000
Si      -3.61638000      -0.04724100      -0.86774786       0.00000000
Si      -1.00251918      -3.56371443       0.50045353       0.00000000
Si      -1.25550288       2.74261698      -2.38681270       0.00000000
Si       2.65590531      -2.05154631       1.88107534       0.00000000
