10
Lattice="16.28999089631971 0.0 0.0 0.0 16.28999089631971 0.0 0.0 0.0 34.31052061344573" Properties=species:S:1:pos:R:3:initial_magmoms:R:1 pbc="T T T"
Si      -1.37898108       1.35189081      -1.33212386       0.00000000
Si       1.34583093       1.36920708       1.36015214       0.00000000
Si      -1.36726857      -1.34827443       1.35980904       0.00000000
Si       1.48190130      -1.27920483      -1.37980179       0.00000000
Si       2.69741223      -2.68928352       0.02113186       0.00000000
Si       2.70265761       0.01097946       2.71836917       0.00000000
Si      -0.06965604       2.67486687      -2.74793254       0.00000000
Si      -0.01066995      -2.70327663       2.72190316       0.00000000
Si      -2.73544938      -2.69469180      -0.01947809       0.00000000
Si       2.71202436       2.72652246       0.00267965       0.00000000
