10
Lattice="16.28999089631971 0.0 0.0 0.0 16.28999089631971 0.0 0.0 0.0 34.31052061344573" Properties=species:S:1:pos:R:3:initial_magmoms:R:1 pbc="T T T"
Si      -0.68939280      -0.56089728       2.25156055       0.00000000
Si       2.10224079      -1.26206775      -0.06494985       0.00000000
Si      -2.15168094      -0.47778570      -1.19112470       0.00000000
Si      -0.04898403       2.56205862      -0.13545801       0.00000000
Si       0.25935309       1.68726933      -2.29290475       0.00000000
Si      -3.37665636       1.15505874       0.31912233       0.00000000
Si      -1.43050635       0.42704235      -3.35649718       0.00000000
Si      -3.00731319      -0.28168668       2.19982026       0.00000000
Si      -0.60685137      -3.85559865      -0.22308713       0.00000000
Si       1.58076531      -3.61035270       0.64280796       0.00000000
