10
Lattice="16.28999089631971 0.0 0.0 0.0 16.28999089631971 0.0 0.0 0.0 34.31052061344573" Properties=species:S:1:pos:R:3:initial_magmoms:R:1 pbc="T T T"
Si       0.72117459       0.90482805      -2.16537248       0.00000000
Si      -0.81914265      -2.22676155       0.70480711       0.00000000
Si       2.15168094       0.47778570       1.19112470       0.00000000
Si      -1.22497542       1.63284444       1.51024703       0.00000000
Si      -1.87936101      -1.67571972      -2.26253993       0.00000000
Si       2.41103403       2.16505503      -1.10178005       0.00000000
Si      -0.85563225       0.19609902       3.39094496       0.00000000
Si       1.46228814      -0.08311158       3.44268525       0.00000000
Si       1.54482957      -3.37781295       0.96803757       0.00000000
Si       2.10269691       3.03984432       1.05566669       0.00000000
