10
Lattice="16.28999089631971 0.0 0.0 0.0 16.28999089631971 0.0 0.0 0.0 34.31052061344573" Properties=species:S:1:pos:R:3:initial_magmoms:R:1 pbc="T T T"
Si      -0.28773027       1.11903570       2.01691077       0.00000000
Si       0.27329733      -2.25189702       0.54766484       0.00000000
Si      -2.06259093       0.16373079      -1.13362023       0.00000000
Si       1.74954600       1.18698618      -1.10775009       0.00000000
Si      -3.30897141       0.22913514       0.95311248       0.00000000
Si       0.85496436      -3.02746392      -1.55670350       0.00000000
Si       1.32874272       2.74117436       1.91617503       0.00000000
Si      -1.95364341       2.33819234      -2.15583415       0.00000000
Si       3.70491615       0.55237258       0.01924821       0.00000000
Si      -2.38997106       2.05638022       2.02837049       0.00000000
