10
Lattice="16.28999089631971 0.0 0.0 0.0 16.28999089631971 0.0 0.0 0.0 34.31052061344573" Properties=species:S:1:pos:R:3:initial_magmoms:R:1 pbc="T T T"
Si      -0.26454960      -2.29218219       0.57312326       0.00000000
Si      -0.84352878       1.27241190       1.83036437       0.00000000
Si       2.38505148       0.01249443      -0.08402651       0.00000000
Si      -1.01590956       1.05138918      -1.88900108       0.00000000
Si      -1.23496119      -0.87252498      -3.24852191       0.00000000
Si      -1.75290174       3.12694695       0.74728356       0.00000000
Si       2.93716845       0.52097049       2.15521656       0.00000000
Si       1.01540457       1.50263847       3.22477901       0.00000000
Si      -3.10827861       1.88533944      -0.84688705       0.00000000
Si       1.25550288      -2.74261698       2.38681270       0.00000000
