10
Lattice="16.28999089631971 0.0 0.0 0.0 16.28999089631971 0.0 0.0 0.0 34.31052061344573" Properties=species:S:1:pos:R:3:initial_magmoms:R:1 pbc="T T T"
Si      -0.00716760       0.53186198       2.31874059       0.00000000
Si       0.50655384       1.75431082      -1.54044030       0.00000000
Si      -1.59518196      -1.61894811      -0.75833155       0.00000000
Si       1.71541845      -1.66615653      -0.28992406       0.00000000
Si       1.73115459       0.16515779      -2.86331748       0.00000000
Si      -1.70355933      -0.88285691       3.15289843       0.00000000
Si       2.78862550      -1.79743764       1.78109443       0.00000000
Si       2.11193334       0.01088661       3.18566500       0.00000000
Si      -3.81337497      -0.83392925      -0.38390063       0.00000000
Si      -2.59162497       2.92435636      -0.60187549       0.00000000
