10
Lattice="16.28999089631971 0.0 0.0 0.0 16.28999089631971 0.0 0.0 0.0 34.31052061344573" Properties=species:S:1:pos:R:3:initial_magmoms:R:1 pbc="T T T"
Si       0.21276369      -0.96487299      -2.15809864       0.00000000
Si       0.46621980      -1.66554336       1.63849983       0.00000000
Si      -2.21713416       0.71309475       0.62692218       0.00000000
Si       1.84384881       1.56457305       0.32842049       0.00000000
Si      -0.31377798      -0.30413430       3.46937885       0.00000000
Si      -2.05788312       3.04925994       0.34238488       0.00000000
Si       2.78169669      -2.15141541       1.35464873       0.00000000
Si      -1.57595976      -2.43120431      -2.47567700       0.00000000
Si       3.68785956       0.57112740      -0.82904557       0.00000000
Si      -2.60232750      -0.09568746       2.94274638       0.00000000
