10
Lattice="16.28999089631971 0.0 0.0 0.0 16.28999089631971 0.0 0.0 0.0 34.31052061344573" Properties=species:S:1:pos:R:3:initial_magmoms:R:1 pbc="T T T"
Si      -2.28854952       0.20844684      -0.52663248       0.00000000
Si       0.55571706       2.28840291       0.12526778       0.00000000
Si       0.75109932      -1.14909660       1.92279696       0.00000000
Si       0.77999778      -1.36140906      -1.83087902       0.00000000
Si      -0.11072313       0.62661114       3.27964157       0.00000000
Si       2.68369605       2.00885022      -0.83577044       0.00000000
Si      -2.66980068      -2.11523532      -0.58657299       0.00000000
Si      -0.64907505      -3.15428876      -1.28314557       0.00000000
Si       0.31377798       0.30413430      -3.46937885       0.00000000
Si      -1.90335618       1.01722905      -2.84245667       0.00000000
