10
Lattice="16.28999089631971 0.0 0.0 0.0 16.28999089631971 0.0 0.0 0.0 34.31052061344573" Properties=species:S:1:pos:R:3:initial_magmoms:R:1 pbc="T T T"
Si       1.36412460       1.34459289       1.34517902       0.00000000
Si      -1.35767376       1.35410625      -1.36024135       0.00000000
Si       1.35682668      -1.36057338      -1.35904048       0.00000000
Si      -1.36067112      -1.38565998       1.36648587       0.00000000
Si       0.00967626       2.67097356       2.69543601       0.00000000
Si       2.63692746      -0.03300354       2.77970269       0.00000000
Si      -2.71107954       2.70769122      -0.00219587       0.00000000
Si       0.00019548       2.71142163      -2.71667423       0.00000000
Si       2.71847520       2.70972747      -0.00391140       0.00000000
Si       2.71340901      -2.71731861       0.00068621       0.00000000
