10
Lattice="16.28999089631971 0.0 0.0 0.0 16.28999089631971 0.0 0.0 0.0 34.31052061344573" Properties=species:S:1:pos:R:3:initial_magmoms:R:1 pbc="T T T"
Si       2.25261771       0.18397926      -0.64973869       0.00000000
Si      -1.08859554       0.35706051      -2.07390058       0.00000000
Si      -0.29019006      -2.29601034       0.59954237       0.00000000
Si      -0.03982905       1.35685926       2.01639611       0.00000000
Si       0.23587920      -2.15586747       2.90473030       0.00000000
Si       1.55382069      -3.28945599      -0.55792369       0.00000000
Si       1.22147732      -0.09299961       3.58706400       0.00000000
Si      -3.47350041       0.30165822      -1.48897450       0.00000000
Si      -2.28841920       1.81211589       2.48521533       0.00000000
Si      -0.38765313      -1.58765598      -3.47109438       0.00000000
