10
Lattice="16.28999089631971 0.0 0.0 0.0 16.28999089631971 0.0 0.0 0.0 34.31052061344573" Properties=species:S:1:pos:R:3:initial_magmoms:R:1 pbc="T T T"
Si      -0.94441275       1.75420494       1.19781182       0.00000000
Si       1.79475075      -1.00233999       1.16565599       0.00000000
Si       1.79281819       0.93452472      -1.30140461       0.00000000
Si      -1.96447626      -1.78017120      -0.17447939       0.00000000
Si      -2.18461932      -0.41648643      -2.10159059       0.00000000
Si      -2.30593095       0.39219804       2.54534112       0.00000000
Si       0.43008858      -2.34303957       2.53954264       0.00000000
Si      -2.15992368       3.16428363      -0.20312183       0.00000000
Si      -0.93530664      -3.67380225       1.14191995       0.00000000
Si      -3.35394810       1.54564407      -1.46778534       0.00000000
