10
Lattice="16.28999089631971 0.0 0.0 0.0 16.28999089631971 0.0 0.0 0.0 34.31052061344573" Properties=species:S:1:pos:R:3:initial_magmoms:R:1 pbc="T T T"
Si      -1.02892527      -0.04595409       2.07383196       0.00000000
Si       1.71297495      -1.65437982      -0.23344891       0.00000000
Si       0.19373697       2.26776348      -0.95956287       0.00000000
Si      -2.44416789      -0.39086226      -1.01528318       0.00000000
Si      -1.12925538       1.00038519      -2.42201531       0.00000000
Si       0.27026739      -2.10269691       2.61885488       0.00000000
Si       1.39458690      -2.06158095      -2.51434498       0.00000000
Si      -0.53836821       3.63765474       0.81432635       0.00000000
Si      -0.45442584       1.85875416       3.32503441       0.00000000
Si       0.27342765      -0.37638045      -3.81667014       0.00000000
