10
Lattice="16.28999089631971 0.0 0.0 0.0 16.28999089631971 0.0 0.0 0.0 34.31052061344573" Properties=species:S:1:pos:R:3:initial_magmoms:R:1 pbc="T T T"
Si      -1.89457587      -0.87475671      -1.15214793       0.00000000
Si      -1.03625577       0.34225290       2.13823284       0.00000000
Si       0.95426820       1.92956679      -1.14964326       0.00000000
Si       1.84063968      -1.68648741       0.30649605       0.00000000
Si       1.15136091       0.58749885       3.00412793       0.00000000
Si      -0.41607918      -2.12706675      -2.47859339       0.00000000
Si       2.30871654       0.60318612      -2.49990024       0.00000000
Si       0.94640013      -3.49806573      -1.00526451       0.00000000
Si       3.58151940      -0.77441031      -1.06537657       0.00000000
Si      -3.43152108      -1.76397894       0.46823594       0.00000000
