10
Lattice="16.28999089631971 0.0 0.0 0.0 16.28999089631971 0.0 0.0 0.0 34.31052061344573" Properties=species:S:1:pos:R:3:initial_magmoms:R:1 pbc="T T T"
Si       1.35444834      -1.32638067      -1.35025698       0.00000000
Si       1.75369995       0.87635313       1.29999204       0.00000000
Si      -1.38256488       1.40141241      -1.32126458       0.00000000
Si      -0.95426820      -1.92956679       1.14964326       0.00000000
Si       0.71856819       1.00621701       3.44601337       0.00000000
Si       2.62725120      -2.70397710       0.08426669       0.00000000
Si      -0.00967626      -2.67097356      -2.69543601       0.00000000
Si       2.68767081       2.70666495       0.04010902       0.00000000
Si       2.70879894       0.03875391      -2.69934741       0.00000000
Si      -2.72075580       0.03671766      -2.69763188       0.00000000
