10
Lattice="16.28999089631971 0.0 0.0 0.0 16.28999089631971 0.0 0.0 0.0 34.31052061344573" Properties=species:S:1:pos:R:3:initial_magmoms:R:1 pbc="T T T"
Si      -1.35638081       1.36011337      -1.35313907       0.00000000
Si      -1.35445859      -1.35686544       1.35849151       0.00000000
Si       1.35962713       1.35819604       1.35873169       0.00000000
Si       1.36299101      -1.36124745      -1.35962376       0.00000000
Si      -2.70393848      -0.00015279      -2.71544934       0.00000000
Si      -2.71066625       2.71428967       0.00010293       0.00000000
Si      -2.71265363       0.00069616       2.71585078       0.00000000
Si      -2.71330523      -2.71569579       0.00024017       0.00000000
Si       0.00305389      -2.71453920       2.71578216       0.00000000
Si       0.00250544       2.71600012       2.71526750       0.00000000
