10
Lattice="16.28999089631971 0.0 0.0 0.0 16.28999089631971 0.0 0.0 0.0 34.31052061344573" Properties=species:S:1:pos:R:3:initial_magmoms:R:1 pbc="T T T"
Si       2.10899367      -0.07793136      -0.90940086       0.00000000
Si      -1.64558322       0.88405830      -1.40028175       0.00000000
Si      -0.41094783      -2.34926235       0.32684220       0.00000000
Si       0.70944579       1.58633649       1.73350571       0.00000000
Si      -2.65953798      -1.89400572       0.79566142       0.00000000
Si       1.81054132      -0.12979872       2.87110597       0.00000000
Si       3.15018368      -0.94084524       1.03727624       0.00000000
Si      -1.40098887       3.18503709      -0.81055219       0.00000000
Si       2.63784689       2.14905825      -1.42501965       0.00000000
Si      -3.66003720      -0.22255398      -0.65711546       0.00000000
