10
Lattice="16.28999089631971 0.0 0.0 0.0 16.28999089631971 0.0 0.0 0.0 34.31052061344573" Properties=species:S:1:pos:R:3:initial_magmoms:R:1 pbc="T T T"
Si      -2.24859015       0.45525663       0.46881922       0.00000000
Si       0.41094783       2.34926235      -0.32684220       0.00000000
Si       0.03982905      -1.35685926      -2.01639611       0.00000000
Si       1.26130637      -1.44985887       1.57066789       0.00000000
Si      -1.92173130       1.04244597       2.72806533       0.00000000
Si       2.51994150       2.27133099      -1.23624306       0.00000000
Si       0.27570825      -3.51272673       0.88833419       0.00000000
Si       0.35324865       1.03762413       3.51151219       0.00000000
Si       2.29244676      -1.17288000      -2.66613480       0.00000000
Si      -3.26487438      -1.61880246       0.70919886       0.00000000
