10
Lattice="16.28999089631971 0.0 0.0 0.0 16.28999089631971 0.0 0.0 0.0 34.31052061344573" Properties=species:S:1:pos:R:3:initial_magmoms:R:1 pbc="T T T"
Si       0.06749542      -0.97156818       2.08878693       0.00000000
Si      -0.89132364       2.16627678      -0.10670578       0.00000000
Si      -0.71990397      -1.52467884      -1.70032742       0.00000000
Si       2.39071130       0.58831335      -0.51644224       0.00000000
Si       1.14833653      -0.34283934      -2.66757585       0.00000000
Si       1.25135286       0.96844050       3.12426427       0.00000000
Si       1.09912932       3.49690914       0.75119496       0.00000000
Si       0.62388812      -3.51769518      -1.25943698       0.00000000
Si       2.77826669       2.06457831       1.58545573       0.00000000
Si      -1.11443148       2.92974021      -2.37274538       0.00000000
