10
Lattice="16.28999089631971 0.0 0.0 0.0 16.28999089631971 0.0 0.0 0.0 34.31052061344573" Properties=species:S:1:pos:R:3:initial_magmoms:R:1 pbc="T T T"
Si       1.02892527       0.04595409      -2.07383196       0.00000000
Si       0.57449943       1.90470825       1.25120245       0.00000000
Si      -2.34862052      -0.00343719       0.58870024       0.00000000
Si       1.29919266      -2.05674282       0.54502292       0.00000000
Si      -1.41524262      -0.34490817      -3.08911514       0.00000000
Si       2.04579594       0.67921155       2.65230766       0.00000000
Si      -1.96497799      -1.38873879       2.48363704       0.00000000
Si       0.17389575      -2.28845178       2.61065466       0.00000000
Si      -3.18152564      -0.00693954      -1.56939840       0.00000000
Si       0.49055706       3.68360883      -1.25950561       0.00000000
