10
Lattice="16.28999089631971 0.0 0.0 0.0 16.28999089631971 0.0 0.0 0.0 34.31052061344573" Properties=species:S:1:pos:R:3:initial_magmoms:R:1 pbc="T T T"
Si       0.48304574      -0.97907787       2.10742197       0.00000000
Si       0.59135795       2.31221889      -0.00487210       0.00000000
Si       1.83469220      -1.11052188      -1.05542651       0.00000000
Si      -2.02138605      -1.07948943      -0.74172525       0.00000000
Si      -0.91572932      -2.87073783       1.99251598       0.00000000
Si      -0.56280973       3.06970389       1.86721389       0.00000000
Si      -1.08842775      -3.01866732      -1.71792873       0.00000000
Si       2.92921730       2.21056929      -0.17453772       0.00000000
Si       2.88099890      -0.93206493       2.10886302       0.00000000
Si      -2.97296640      -1.89455958       1.31405936       0.00000000
