10
Lattice="16.28999089631971 0.0 0.0 0.0 16.28999089631971 0.0 0.0 0.0 34.31052061344573" Properties=species:S:1:pos:R:3:initial_magmoms:R:1 pbc="T T T"
Si      -0.57449943      -1.90470825      -1.25120245       0.00000000
Si       1.45564182       1.67785371      -0.76776695       0.00000000
Si       1.47129651      -1.22549670       1.40110520       0.00000000
Si      -1.83469220       1.11052188       1.05542651       0.00000000
Si      -0.08394237       1.77890058      -2.51070806       0.00000000
Si       1.04630670       0.17845695       3.16428953       0.00000000
Si      -1.35164646       0.13144401       3.16284849       0.00000000
Si      -2.92311995      -1.90814544      -0.66250221       0.00000000
Si       1.09452510       3.32109117       0.88088880       0.00000000
Si      -1.24333425       3.42274077       1.05055442       0.00000000
