10
Lattice="16.28999089631971 0.0 0.0 0.0 16.28999089631971 0.0 0.0 0.0 34.31052061344573" Properties=species:S:1:pos:R:3:initial_magmoms:R:1 pbc="T T T"
Si      -0.11576326      -0.72562176       2.23471408       0.00000000
Si       1.39877506       1.89165996       0.11490600       0.00000000
Si      -2.05723708       0.97617825      -0.67845661       0.00000000
Si       0.21094410      -1.53323109      -1.81550790       0.00000000
Si      -1.10565673       1.79124840      -2.73424123       0.00000000
Si       0.58303376       2.74781349       2.14289907       0.00000000
Si       0.91572932       2.87073783      -1.99251598       0.00000000
Si      -0.17269844      -0.14792949      -3.71044470       0.00000000
Si       2.34981784      -2.43294408      -1.68849028       0.00000000
Si      -0.15441454      -3.04081357       2.26909324       0.00000000
