10
Lattice="16.28999089631971 0.0 0.0 0.0 16.28999089631971 0.0 0.0 0.0 34.31052061344573" Properties=species:S:1:pos:R:3:initial_magmoms:R:1 pbc="T T T"
Si      -0.32633757       0.90930780       2.10652990       0.00000000
Si      -0.29712960      -2.29614066      -0.30745675       0.00000000
Si      -1.52477984       0.68813847      -1.63077996       0.00000000
Si       2.18595510       0.88524747      -0.43941508       0.00000000
Si       2.83846734      -0.93957462      -1.76308140       0.00000000
Si      -0.82170018       2.84306112      -2.02775290       0.00000000
Si       2.97408159       0.87693957       1.82017414       0.00000000
Si       1.52182809       2.62485657      -1.94633399       0.00000000
Si       1.50467472      -2.85768954      -1.68519647       0.00000000
Si      -2.55592022       0.41115960       2.60602274       0.00000000
