10
Lattice="16.28999089631971 0.0 0.0 0.0 16.28999089631971 0.0 0.0 0.0 34.31052061344573" Properties=species:S:1:pos:R:3:initial_magmoms:R:1 pbc="T T T"
Si      -1.35587371      -1.35668331       1.35694754       0.00000000
Si       1.35742941      -1.35783990      -1.35708478       0.00000000
Si      -1.35863324       1.35816641      -1.35677599       0.00000000
Si       1.35755973       1.35844497       1.35763375       0.00000000
Si       0.00016290       2.71272878       2.71193938       0.00000000
Si      -0.00149868      -2.71383579       2.71327749       0.00000000
Si       2.71358820       0.00025912      -2.71458129       0.00000000
Si       2.71474479      -2.71401498       0.00000000       0.00000000
Si      -0.00073305      -2.71482948      -2.71461560       0.00000000
Si       2.71482624       2.71491164      -0.00024017       0.00000000
