10
Lattice="16.28999089631971 0.0 0.0 0.0 16.28999089631971 0.0 0.0 0.0 34.31052061344573" Properties=species:S:1:pos:R:3:initial_magmoms:R:1 pbc="T T T"
Si      -1.35426474       1.35474156      -1.35818272       0.00000000
Si      -1.35794628      -1.35731538       1.35869738       0.00000000
Si       1.35795740       1.35723393       1.35907479       0.00000000
Si       1.36275969      -1.35741312      -1.36030997       0.00000000
Si      -2.72109348       0.01326006      -2.69637955       0.00000000
Si      -2.71584810       2.71352304       0.00085776       0.00000000
Si       2.71498445       2.71441899       0.00150966       0.00000000
Si      -2.71441458      -2.71534752      -0.00099501       0.00000000
Si       0.00051102       2.71467963       2.71639975       0.00000000
Si       2.71493558      -0.00034209       2.71615957       0.00000000
