10
Lattice="16.28999089631971 0.0 0.0 0.0 16.28999089631971 0.0 0.0 0.0 34.31052061344573" Properties=species:S:1:pos:R:3:initial_magmoms:R:1 pbc="T T T"
Si      -0.31274519       0.82324773      -2.18743415       0.00000000
Si       2.14882693      -1.04712120      -0.23773773       0.00000000
Si       0.20766003       1.93132611       1.56857495       0.00000000
Si      -2.11774302      -1.54632825       0.34591886       0.00000000
Si       0.98943505       0.59671899       3.32352475       0.00000000
Si      -3.61085184       0.34803585       0.59786116       0.00000000
Si       0.39807710      -1.71549990       3.32839684       0.00000000
Si      -1.18069335      -1.01387331      -3.47164335       0.00000000
Si      -1.98690174       2.70260874       2.02435616       0.00000000
Si      -2.05424460       2.56645692      -2.25591799       0.00000000
