10
Lattice="16.28999089631971 0.0 0.0 0.0 16.28999089631971 0.0 0.0 0.0 34.31052061344573" Properties=species:S:1:pos:R:3:initial_magmoms:R:1 pbc="T T T"
Si       1.35697818      -1.35757602       1.35708478       0.00000000
Si       1.35702705       1.35718506      -1.35756513       0.00000000
Si      -1.35744638       1.35744570       1.35732495       0.00000000
Si      -1.35795740      -1.35723393      -1.35907479       0.00000000
Si      -0.00223010      -2.71423980       2.71338042       0.00000000
Si       2.71385373       0.00140094       2.71451267       0.00000000
Si       0.00249074       2.71073745      -2.71808096       0.00000000
Si       0.00188638       2.71533123       2.71399801       0.00000000
Si      -2.71477967      -0.00198738       2.71458129       0.00000000
Si       2.71518951       2.71417464      -0.00003431       0.00000000
