10
Lattice="16.28999089631971 0.0 0.0 0.0 16.28999089631971 0.0 0.0 0.0 34.31052061344573" Properties=species:S:1:pos:R:3:initial_magmoms:R:1 pbc="T T T"
Si       1.30407966      -1.33700175      -1.35327631       0.00000000
Si      -1.03034250      -1.69311744       1.25573145       0.00000000
Si      -1.41133791       1.39295368      -1.33917468       0.00000000
Si       1.62538362       0.60193572       1.67294761       0.00000000
Si      -1.77092174       0.13440832       2.61312502       0.00000000
Si       2.40103197       2.41524404      -0.01290076       0.00000000
Si       2.47606371      -2.66416434       0.22531731       0.00000000
Si       2.65065993       0.03077181      -2.70284708       0.00000000
Si      -0.06908589      -2.68136658      -2.70144035       0.00000000
Si       0.61330221      -3.46952565       1.55066485       0.00000000
