10
Lattice="16.28999089631971 0.0 0.0 0.0 16.28999089631971 0.0 0.0 0.0 34.36671206372826" Properties=species:S:1:pos:R:3:initial_magmoms:R:1 pbc="T T T"
Si       1.13459850      -0.35958008       2.02746531       0.00000000
Si      -2.31624252      -0.01870255       0.44226546       0.00000000
Si       1.33613838       1.59770854      -1.25692883       0.00000000
Si      -0.73459755      -1.93946038      -1.39308982       0.00000000
Si       0.44649261      -0.24188858      -2.68318254       0.00000000
Si      -1.86870735      -1.98929149       1.68104866       0.00000000
Si      -0.37423017       3.20074228      -1.22331817       0.00000000
Si       0.73036215       1.86242104       2.82353627       0.00000000
Si      -0.39234465      -3.54180994       0.39298357       0.00000000
Si      -0.20922876      -1.75495984       3.42801271       0.00000000
