10
Lattice="16.28999089631971 0.0 0.0 0.0 16.28999089631971 0.0 0.0 0.0 34.36671206372826" Properties=species:S:1:pos:R:3:initial_magmoms:R:1 pbc="T T T"
Si      -0.98914509       1.91822243      -0.88521826       0.00000000
Si      -1.59633855      -1.70321465      -0.18073464       0.00000000
Si       1.64792898      -1.02447158      -1.35535515       0.00000000
Si       0.57516732      -0.39168816       2.26511126       0.00000000
Si       2.05288209      -2.86112414       0.03519153       0.00000000
Si      -2.41396623       2.45088914       0.95515456       0.00000000
Si      -0.21989871      -3.54755216       0.42277953       0.00000000
Si       0.44528715      -1.38814976      -3.30226484       0.00000000
Si       0.93906963       3.35796521      -1.11440999       0.00000000
Si      -1.77530049      -1.96765022      -2.52963199       0.00000000
