10
Lattice="16.28999089631971 0.0 0.0 0.0 16.28999089631971 0.0 0.0 0.0 34.36671206372826" Properties=species:S:1:pos:R:3:initial_magmoms:R:1 pbc="T T T"
Si      -1.20264183      -0.36367818      -1.94690969       0.00000000
Si       0.40495311      -1.83665256       1.39054668       0.00000000
Si       2.16093366       0.50957238      -0.74094673       0.00000000
Si      -1.64792898       1.02447158       1.35535515       0.00000000
Si      -3.24426753      -0.67874307       1.17462051       0.00000000
Si       0.88394427      -0.68068158       3.38213312       0.00000000
Si      -1.86782769      -2.52308058       1.77813468       0.00000000
Si      -3.42322947      -0.94317864      -1.17427684       0.00000000
Si       3.39077979       1.21794628       1.11753737       0.00000000
Si      -1.07276166       0.63278342       3.62046641       0.00000000
