10
Lattice="16.28999089631971 0.0 0.0 0.0 16.28999089631971 0.0 0.0 0.0 34.36671206372826" Properties=species:S:1:pos:R:3:initial_magmoms:R:1 pbc="T T T"
Si      -0.74355705      -1.85388834      -1.20654720       0.00000000
Si       1.64774979      -0.68033556       1.52285860       0.00000000
Si       1.24159122       1.42902396      -1.40989515       0.00000000
Si      -1.40478444       1.23932691       1.49113810       0.00000000
Si       2.35993230       2.47324554       0.40786437       0.00000000
Si       1.89949545       1.42159572       2.52238061       0.00000000
Si      -2.44638333      -0.45887301       2.66572424       0.00000000
Si       0.13333365      -1.76043749       3.23370321       0.00000000
Si       1.21314888      -3.16735334      -1.44488048       0.00000000
Si      -0.32518098       2.85047307      -2.43471108       0.00000000
