10
Lattice="16.28999089631971 0.0 0.0 0.0 16.28999089631971 0.0 0.0 0.0 34.36671206372826" Properties=species:S:1:pos:R:3:initial_magmoms:R:1 pbc="T T T"
Si      -1.46438955       1.26773667       1.32693386       0.00000000
Si      -1.35415512      -1.34197020      -1.37222921       0.00000000
Si       1.36034532       1.37481084      -1.37408502       0.00000000
Si       1.43140230      -1.35951453       1.43749164       0.00000000
Si      -0.10798641       2.40259581       2.81353556       0.00000000
Si      -2.70417258      -2.70607851       0.01460586       0.00000000
Si       2.70404226       2.71593396      -0.00278371       0.00000000
Si       2.72593602      -2.70208746      -0.01312809       0.00000000
Si       0.00141723      -2.70097974      -2.73043680       0.00000000
Si      -2.71371852       0.01487277      -2.73050553       0.00000000
