10
Lattice="16.28999089631971 0.0 0.0 0.0 16.28999089631971 0.0 0.0 0.0 34.36671206372826" Properties=species:S:1:pos:R:3:initial_magmoms:R:1 pbc="T T T"
Si       0.05994720      -0.72699012       2.21466090       0.00000000
Si      -0.31737807       2.35735848      -0.05209996       0.00000000
Si       2.23076889      -0.68387049      -0.67111353       0.00000000
Si      -2.11133061      -1.23746985      -0.31933567       0.00000000
Si      -1.15212654      -3.29405629       0.36689922       0.00000000
Si       0.80182638      -2.91734352       1.78676073       0.00000000
Si       1.83070278       2.92048749      -1.25668826       0.00000000
Si       3.35570742       1.49213142       0.31163752       0.00000000
Si       0.72148410       1.15201251       3.47942534       0.00000000
Si       1.87010829      -1.23678567      -3.16589765       0.00000000
