10
Lattice="16.28999089631971 0.0 0.0 0.0 16.28999089631971 0.0 0.0 0.0 34.36671206372826" Properties=species:S:1:pos:R:3:initial_magmoms:R:1 pbc="T T T"
Si      -2.23076889       0.68387049       0.67111353       0.00000000
Si       0.74393172      -1.89123642       1.55207032       0.00000000
Si      -0.36066060      -0.55291518      -2.49478412       0.00000000
Si       1.12493853       2.17600191       0.98275105       0.00000000
Si       1.34970795      -2.15594892      -2.52839479       0.00000000
Si      -2.17082169      -0.04311963       2.88577442       0.00000000
Si      -1.42894251      -2.23347303       2.45787425       0.00000000
Si      -0.40006611       3.60435798      -0.58557473       0.00000000
Si       2.14062003       2.25598581      -2.39924461       0.00000000
Si       0.01356957      -3.75365746      -1.27146596       0.00000000
