10
Lattice="16.28999089631971 0.0 0.0 0.0 16.28999089631971 0.0 0.0 0.0 34.36671206372826" Properties=species:S:1:pos:R:3:initial_magmoms:R:1 pbc="T T T"
Si       1.51136991      -1.71602118      -0.56299579       0.00000000
Si      -0.15159474       0.95457771      -2.20466018       0.00000000
Si       1.35995436       1.13153598       1.68025823       0.00000000
Si      -2.33702856      -0.63760689       0.30328640       0.00000000
Si      -2.51936253       1.14368832      -2.30308650       0.00000000
Si       3.38700051      -0.65267514      -1.54516260       0.00000000
Si      -3.54836436       1.37479455      -0.16186730       0.00000000
Si      -0.04551426       1.59327603       3.54506580       0.00000000
Si       2.11893804      -3.05242020       1.23438425       0.00000000
Si      -2.72749986      -2.78891316      -0.75070688       0.00000000
