10
Lattice="16.28999089631971 0.0 0.0 0.0 16.28999089631971 0.0 0.0 0.0 34.36671206372826" Properties=species:S:1:pos:R:3:initial_magmoms:R:1 pbc="T T T"
Si      -0.52983225      -0.34510365       2.23194736       0.00000000
Si      -1.14077241      -1.85666904      -0.87353358       0.00000000
Si      -1.37920914       1.89374508      -0.29170482       0.00000000
Si       2.26673721       0.00511506      -0.79174075       0.00000000
Si       0.28404873      -2.38933575      -2.71390640       0.00000000
Si      -3.30060650      -0.98082090      -1.37930876       0.00000000
Si       1.18713375      -1.60603110       3.13410842       0.00000000
Si       0.04781115       3.69610326      -0.63241659       0.00000000
Si       2.21226345      -0.94959297      -2.94309813       0.00000000
Si      -3.15956116       1.32413265      -1.71524356       0.00000000
