10
Lattice="16.28999089631971 0.0 0.0 0.0 16.28999089631971 0.0 0.0 0.0 34.36671206372826" Properties=species:S:1:pos:R:3:initial_magmoms:R:1 pbc="T T T"
Si      -1.71025452       1.04715378       1.25435132       0.00000000
Si      -1.12607883      -0.97578729      -1.83999479       0.00000000
Si       0.95920407      -2.05658644       0.68623489       0.00000000
Si       2.11133061       1.23746985       0.31933567       0.00000000
Si       2.17127781       0.51047973       2.53399656       0.00000000
Si       0.64438353      -2.24405338      -2.87481144       0.00000000
Si      -0.91761570      -3.44381514       1.14379355       0.00000000
Si       0.34614621      -0.32180895       3.73992516       0.00000000
Si      -1.83922408       3.41063730       0.61671099       0.00000000
Si      -3.79670120      -0.19000656       1.02959290       0.00000000
