10
Lattice="16.28999089631971 0.0 0.0 0.0 16.28999089631971 0.0 0.0 0.0 34.36671206372826" Properties=species:S:1:pos:R:3:initial_magmoms:R:1 pbc="T T T"
Si       1.46199492      -1.21200858       1.37596831       0.00000000
Si      -1.27580022       1.49115402       1.35890867       0.00000000
Si      -0.91466721      -1.75993902      -1.35636007       0.00000000
Si       0.87050502       1.91839185      -1.18959203       0.00000000
Si       2.57403177      -2.71321353      -0.05882553       0.00000000
Si       0.09607842      -2.56389939       2.73315864       0.00000000
Si      -2.61645093       0.15102459       2.73089044       0.00000000
Si      -2.71427238      -2.82307329      -0.17501258       0.00000000
Si       2.81188206       0.15110604       2.73137157       0.00000000
Si      -2.60939736       2.94936966      -0.01080834       0.00000000
