10
Lattice="16.28999089631971 0.0 0.0 0.0 16.28999089631971 0.0 0.0 0.0 34.36671206372826" Properties=species:S:1:pos:R:3:initial_magmoms:R:1 pbc="T T T"
Si       1.95825348      -0.93195090      -1.01914542       0.00000000
Si       1.61596800       1.01343348       1.46264808       0.00000000
Si      -0.90306873       2.06708697      -0.95312693       0.00000000
Si      -1.42778592      -2.01468204       0.71197557       0.00000000
Si      -2.09986245       0.64207035      -2.45581225       0.00000000
Si       0.60185034      -2.06681004      -2.50574711       0.00000000
Si      -1.22782617      -3.00622176      -1.39446449       0.00000000
Si      -3.03279075      -1.29518532      -1.36820831       0.00000000
Si       0.51601833      -2.89756746       2.06293178       0.00000000
Si       2.66409918      -2.33443845       0.85834348       0.00000000
