10
Lattice="16.28999089631971 0.0 0.0 0.0 16.28999089631971 0.0 0.0 0.0 34.36671206372826" Properties=species:S:1:pos:R:3:initial_magmoms:R:1 pbc="T T T"
Si       1.34065071       1.34012943      -1.37198177       0.00000000
Si      -1.35839052       1.35259128       1.35899802       0.00000000
Si       1.35746199      -1.36114353       1.36078509       0.00000000
Si      -1.35972630      -1.37140623      -1.39933769       0.00000000
Si       2.61645093      -0.15102459      -2.73089044       0.00000000
Si      -2.71192988       2.70912474      -0.00158087       0.00000000
Si       2.71124244       2.71583622      -0.00446768       0.00000000
Si       2.71252935      -2.71492398       0.00226820       0.00000000
Si      -0.00009774       2.71218726       2.71538417       0.00000000
Si       2.71446786      -0.00260640       2.71603714       0.00000000
