10
Lattice="16.28999089631971 0.0 0.0 0.0 16.28999089631971 0.0 0.0 0.0 34.36671206372826" Properties=species:S:1:pos:R:3:initial_magmoms:R:1 pbc="T T T"
Si       0.47557026       1.25421597      -1.89436296       0.00000000
Si      -0.66634801      -2.25198240      -0.37425370       0.00000000
Si      -1.97896363       0.98567532       0.94632231       0.00000000
Si       1.93654054      -0.25352746       1.46268245       0.00000000
Si      -0.96600256      -2.48075916       1.91635767       0.00000000
Si      -2.41278262      -0.68828901       2.64091146       0.00000000
Si       1.18398978      -2.17802580       2.74531759       0.00000000
Si       0.27788459       3.48231656      -1.22754527       0.00000000
Si      -3.54034384       0.78296256      -0.79761747       0.00000000
Si       2.45988937       0.76862247      -3.01066313       0.00000000
