10
Lattice="16.28999089631971 0.0 0.0 0.0 16.28999089631971 0.0 0.0 0.0 34.36671206372826" Properties=species:S:1:pos:R:3:initial_magmoms:R:1 pbc="T T T"
Si       1.20264183       0.36367818       1.94690969       0.00000000
Si       1.19983995      -1.26198630      -1.60351731       0.00000000
Si      -0.03344337       2.01315797      -1.30218981       0.00000000
Si      -2.22058764      -0.57950046       0.77263285       0.00000000
Si      -0.44528715       1.38814976       3.30226484       0.00000000
Si       3.36357549       0.87325056       1.20596297       0.00000000
Si      -0.45963864      -1.49631795      -3.35048136       0.00000000
Si      -3.54832038       1.15440618      -0.08217085       0.00000000
Si      -2.04162570      -0.31506489       3.12153020       0.00000000
Si      -1.98739629       1.63644520      -2.72205132       0.00000000
