10
Lattice="16.28999089631971 0.0 0.0 0.0 16.28999089631971 0.0 0.0 0.0 34.36671206372826" Properties=species:S:1:pos:R:3:initial_magmoms:R:1 pbc="T T T"
Si      -0.35249931       0.43236918       2.30675003       0.00000000
Si       1.50623856      -1.41136560      -1.38071780       0.00000000
Si       1.11676095       2.22011523      -0.04515788       0.00000000
Si      -2.37314349       0.34977888      -0.75383425       0.00000000
Si      -1.08528867       1.75510089      -2.23675870       0.00000000
Si      -2.18457045       2.07003546       1.91298973       0.00000000
Si       0.38693637      -1.26270306      -3.51152387       0.00000000
Si       0.77825475       1.05788889      -3.64435128       0.00000000
Si      -0.51699573       3.74629016      -0.93377846       0.00000000
Si      -1.22300433      -1.48602267       3.49634206       0.00000000
