10
Lattice="16.28999089631971 0.0 0.0 0.0 16.28999089631971 0.0 0.0 0.0 34.36671206372826" Properties=species:S:1:pos:R:3:initial_magmoms:R:1 pbc="T T T"
Si       1.11643515      -1.50227520       1.41343492       0.00000000
Si      -2.07005175       0.16663041       1.16719729       0.00000000
Si       0.71180784       2.26113345      -0.24840273       0.00000000
Si      -0.36127962      -1.34084456      -1.96309642       0.00000000
Si       0.09029547      -3.43990133       0.50436615       0.00000000
Si      -1.35786924       3.32021151       0.05220306       0.00000000
Si      -1.81830609       2.26856169       2.16671931       0.00000000
Si       1.07132814      -3.15386522      -1.64853773       0.00000000
Si      -2.47621032       2.27598993      -1.76555645       0.00000000
Si      -3.71780154       0.84696597      -0.35566130       0.00000000
