10
Lattice="16.28999089631971 0.0 0.0 0.0 16.28999089631971 0.0 0.0 0.0 34.36671206372826" Properties=species:S:1:pos:R:3:initial_magmoms:R:1 pbc="T T T"
Si      -1.36014984      -1.35360126       1.37829150       0.00000000
Si       1.36430379       1.35640314       1.37158999       0.00000000
Si       1.05326253      -1.66371399      -1.31420099       0.00000000
Si      -1.35891180       1.37632581      -1.43326453       0.00000000
Si      -2.67775020      -2.71982727       0.01647197       0.00000000
Si      -0.79939917      -3.48329070      -1.35672638       0.00000000
Si       2.70368388       2.70640431      -0.00878757       0.00000000
Si      -2.71329498       2.70699075       0.00592139       0.00000000
Si       0.00042354       2.71251306       2.73089731       0.00000000
Si      -2.71303434      -0.00363267       2.73309678       0.00000000
