10
Lattice="16.28999089631971 0.0 0.0 0.0 16.28999089631971 0.0 0.0 0.0 34.36671206372826" Properties=species:S:1:pos:R:3:initial_magmoms:R:1 pbc="T T T"
Si      -1.45668438       1.20611160       1.34569810       0.00000000
Si       1.33905429       1.35521397      -1.34521696       0.00000000
Si       1.35034326      -1.30567608       1.39886343       0.00000000
Si      -1.37269314      -1.36969578      -1.34446089       0.00000000
Si      -0.57303333      -2.14254225       2.54410038       0.00000000
Si      -2.30793462      -0.37058121       2.90495106       0.00000000
Si       2.70032814      -0.00855225      -2.70218735       0.00000000
Si       2.69557146       2.71002069       0.04357702       0.00000000
Si      -0.01477503       2.70614367      -2.70459302       0.00000000
Si       2.69263926      -2.72875419       0.01848930       0.00000000
