10
Lattice="16.28999089631971 0.0 0.0 0.0 16.28999089631971 0.0 0.0 0.0 34.36671206372826" Properties=species:S:1:pos:R:3:initial_magmoms:R:1 pbc="T T T"
Si      -0.32627241      -0.68119893      -2.23655250       0.00000000
Si      -1.75526379      -1.11377988       1.14588992       0.00000000
Si      -1.03645125       2.14176033       0.07519441       0.00000000
Si       2.20998285       0.26450073       0.88642110       0.00000000
Si      -3.49084926      -0.50266053      -0.32995499       0.00000000
Si      -1.20650256       2.22995439       2.49203478       0.00000000
Si      -1.66884534       0.03165147       3.16813149       0.00000000
Si       0.16757523       2.80067454      -2.23761787       0.00000000
Si       0.85165749      -2.72701116      -2.31212495       0.00000000
Si       1.82817783       1.15872399      -3.00282751       0.00000000
