10
Lattice="16.28999089631971 0.0 0.0 0.0 16.28999089631971 0.0 0.0 0.0 34.36671206372826" Properties=species:S:1:pos:R:3:initial_magmoms:R:1 pbc="T T T"
Si      -0.75859272       0.72322713       2.18562101       0.00000000
Si       2.40598413       0.54468873       0.27902349       0.00000000
Si      -1.52500464       1.42835607      -1.56832578       0.00000000
Si      -1.12493853      -2.17600191      -0.98275105       0.00000000
Si      -0.50357277       3.03653745       1.69276772       0.00000000
Si      -0.74534895       3.37944195      -0.63059515       0.00000000
Si       1.01568150       0.07998390      -3.38199566       0.00000000
Si      -3.35570742      -1.49213142      -0.31163752       0.00000000
Si      -3.67308549       0.86522706      -0.36373748       0.00000000
Si       0.97699275       0.11210778       3.66146592       0.00000000
