10
Lattice="16.28999089631971 0.0 0.0 0.0 16.28999089631971 0.0 0.0 0.0 34.36671206372826" Properties=species:S:1:pos:R:3:initial_magmoms:R:1 pbc="T T T"
Si      -0.19029978       1.17708282       2.06086977       0.00000000
Si       1.78875603       1.06279218      -1.18321219       0.00000000
Si      -1.94908221       0.61333479      -1.25022732       0.00000000
Si       0.21240531      -2.35263438       0.43037458       0.00000000
Si       0.78481962       3.17573550      -1.33054237       0.00000000
Si       1.60777413       0.26469621       3.29185172       0.00000000
Si      -1.48673943       2.81163771      -1.92632402       0.00000000
Si      -1.74469158      -3.32444691      -0.54385352       0.00000000
Si      -2.27771667       0.61944354       3.01980468       0.00000000
Si      -2.03550066      -0.53209656      -3.27246888       0.00000000
