10
Lattice="16.28999089631971 0.0 0.0 0.0 16.28999089631971 0.0 0.0 0.0 34.36671206372826" Properties=species:S:1:pos:R:3:initial_magmoms:R:1 pbc="T T T"
Si       1.85060916      -1.29933927       0.63959924       0.00000000
Si       0.06271650      -0.45377424      -2.31621459       0.00000000
Si      -2.13827427      -0.48031065       0.92590847       0.00000000
Si       0.81099765       2.13454386       1.06688081       0.00000000
Si       0.04087161      -2.81645955      -2.31085338       0.00000000
Si      -0.41956524      -3.86810937      -0.19633714       0.00000000
Si       2.15013339       0.10386504      -3.27514949       0.00000000
Si       3.59178210      -0.13506039       1.63341637       0.00000000
Si      -2.50022178      -2.99830482       0.60110850       0.00000000
Si      -1.48475205       0.81200763      -3.57603022       0.00000000
