10
Lattice="16.28999089631971 0.0 0.0 0.0 16.28999089631971 0.0 0.0 0.0 34.36671206372826" Properties=species:S:1:pos:R:3:initial_magmoms:R:1 pbc="T T T"
Si      -1.46199492       1.21200858      -1.37596831       0.00000000
Si       1.34988714       1.36311462       1.35540326       0.00000000
Si      -1.36591650      -1.35189081       1.35719033       0.00000000
Si       1.11203685      -1.50120495      -1.43479385       0.00000000
Si      -2.37666213      -0.54793044      -2.73232838       0.00000000
Si       2.27413287      -0.13247028      -2.87694359       0.00000000
Si      -0.63092799      -2.33176689      -2.94347758       0.00000000
Si       2.70014895       2.70979263      -0.01307310       0.00000000
Si       2.69524566      -2.71914309      -0.02683011       0.00000000
Si       2.70886410       0.00301365       2.71278605       0.00000000
