10
Lattice="16.28999089631971 0.0 0.0 0.0 16.28999089631971 0.0 0.0 0.0 34.36671206372826" Properties=species:S:1:pos:R:3:initial_magmoms:R:1 pbc="T T T"
Si      -0.50095008       2.12320602       0.69004960       0.00000000
Si      -1.90529469      -1.06805385       0.71328151       0.00000000
Si      -0.04429251       0.75254913      -2.26277432       0.00000000
Si       1.73988603      -0.42093360       1.62183478       0.00000000
Si       1.71848097      -1.08673848      -2.28566256       0.00000000
Si      -2.66365935       2.37102579      -0.51735677       0.00000000
Si       1.71696600       3.14120070       0.41439405       0.00000000
Si      -1.66351851      -1.41095835       3.03664437       0.00000000
Si      -3.73308156       0.32873220       0.37985548       0.00000000
Si      -1.43409015       2.06034291       2.90577586       0.00000000
