10
Lattice="16.28999089631971 0.0 0.0 0.0 16.28999089631971 0.0 0.0 0.0 34.36671206372826" Properties=species:S:1:pos:R:3:initial_magmoms:R:1 pbc="T T T"
Si       0.04429251      -0.75254913       2.26277432       0.00000000
Si       0.88163109       1.97514621      -1.04402693       0.00000000
Si      -1.92878487      -0.87408882      -1.13599230       0.00000000
Si       1.76277348      -1.83928761      -0.02288824       0.00000000
Si      -0.45665757       1.37065689       2.95282392       0.00000000
Si      -0.53447490      -2.05586316      -2.65548296       0.00000000
Si       2.19541959       0.67898349      -2.64084273       0.00000000
Si      -2.61936684       1.61847666       1.74541755       0.00000000
Si       3.65360265      -0.55765557      -1.09918553       0.00000000
Si       0.75127851      -3.54336822      -1.33459764       0.00000000
