10
Lattice="16.28999089631971 0.0 0.0 0.0 16.28999089631971 0.0 0.0 0.0 34.36671206372826" Properties=species:S:1:pos:R:3:initial_magmoms:R:1 pbc="T T T"
Si       1.37451762      -0.70105644      -1.73318299       0.00000000
Si      -0.07545528      -0.77600673       2.20604107       0.00000000
Si      -1.64669094       1.40458896      -0.92556481       0.00000000
Si       2.22681042       1.03838976       0.49642743       0.00000000
Si      -0.91123002      -2.39998615      -0.24080769       0.00000000
Si       2.91012705      -1.39159280       1.06901154       0.00000000
Si      -2.89329622      -1.91756595       0.94312621       0.00000000
Si       0.62245719       1.04899455       3.41314020       0.00000000
Si      -3.66766811      -0.12974985      -0.57272158       0.00000000
Si       1.54267929       2.68900659       2.05455665       0.00000000
