10
Lattice="16.28999089631971 0.0 0.0 0.0 16.28999089631971 0.0 0.0 0.0 34.36671206372826" Properties=species:S:1:pos:R:3:initial_magmoms:R:1 pbc="T T T"
Si       2.13917022       0.95177583      -0.37817151       0.00000000
Si       0.97349040      -1.94764869       0.99883468       0.00000000
Si      -1.11930219       0.14866254      -2.13080607       0.00000000
Si      -1.50623856       1.41136560       1.38071780       0.00000000
Si      -0.72798381       2.46925449      -2.26363349       0.00000000
Si       1.65152907       2.63122596      -1.92673642       0.00000000
Si       3.31257150      -0.77799411      -1.43158056       0.00000000
Si       1.00688490      -1.41913593       3.37608458       0.00000000
Si      -0.38947761       3.63148083       1.33555991       0.00000000
Si      -0.18582003      -1.22492655      -3.84027602       0.00000000
