10
Lattice="16.28999089631971 0.0 0.0 0.0 16.28999089631971 0.0 0.0 0.0 34.36671206372826" Properties=species:S:1:pos:R:3:initial_magmoms:R:1 pbc="T T T"
Si      -1.35026181      -1.34667801       1.36847637       0.00000000
Si       1.36720341       1.36637262       1.36359629       0.00000000
Si      -1.41679017       1.39562946      -1.32007082       0.00000000
Si       1.07792559      -1.60849089      -1.40636912       0.00000000
Si       2.57569335      -0.36642726      -2.62441372       0.00000000
Si      -2.70014895      -2.70979263       0.01307310       0.00000000
Si      -2.70531288       0.00667890       2.72692452       0.00000000
Si       0.00871515      -2.70677898       2.72585915       0.00000000
Si       2.72347623      -2.71914309      -0.01220706       0.00000000
Si       2.72546361       0.00780291       2.72685579       0.00000000
