10
Lattice="16.28999089631971 0.0 0.0 0.0 16.28999089631971 0.0 0.0 0.0 34.36671206372826" Properties=species:S:1:pos:R:3:initial_magmoms:R:1 pbc="T T T"
Si       0.50095008      -2.12320602      -0.69004960       0.00000000
Si      -0.93314007      -0.06286311       2.21572627       0.00000000
Si       2.21791608       1.01799468      -0.27565555       0.00000000
Si      -2.16270927       0.24781977      -1.20740637       0.00000000
Si       0.45665757      -1.37065689      -2.95282392       0.00000000
Si       1.49402106       2.77418700       1.11911824       0.00000000
Si      -1.97959338       2.03466987       1.82762277       0.00000000
Si      -1.40434461      -3.19125987       0.02323191       0.00000000
Si      -0.63576612       3.43004962       0.42707537       0.00000000
Si       2.24083611      -2.54413962       0.93178518       0.00000000
