10
Lattice="16.28999089631971 0.0 0.0 0.0 16.28999089631971 0.0 0.0 0.0 34.36671206372826" Properties=species:S:1:pos:R:3:initial_magmoms:R:1 pbc="T T T"
Si       0.62608986       2.19072807      -0.35940728       0.00000000
Si      -1.66706973      -0.33187617      -1.60241758       0.00000000
Si      -0.48672891       0.13242141       2.29648808       0.00000000
Si       1.70996130      -1.48426335      -0.71616831       0.00000000
Si       0.30287997      -3.47206689      -0.57354638       0.00000000
Si       1.70851149       0.40697307       3.25738189       0.00000000
Si       2.86433586       2.33425926       0.29393865       0.00000000
Si      -1.35610992      -1.90521324       2.94316687       0.00000000
Si       0.76009140       2.50517394      -2.69902561       0.00000000
Si      -3.13009092      -1.97791551      -0.68850309       0.00000000
