10
Lattice="16.28999089631971 0.0 0.0 0.0 16.28999089631971 0.0 0.0 0.0 34.36671206372826" Properties=species:S:1:pos:R:3:initial_magmoms:R:1 pbc="T T T"
Si       0.77416596       1.88582488      -1.22642977       0.00000000
Si       1.30723992      -1.38658266       1.48490398       0.00000000
Si      -1.41196833       1.31235172       1.50855860       0.00000000
Si      -1.78921215      -1.18530112      -1.22354296       0.00000000
Si       2.56370391       2.67124723       0.11995020       0.00000000
Si      -1.32427926       3.31354564      -1.20144516       0.00000000
Si      -0.90148860      -1.53213381      -3.39067467       0.00000000
Si       2.52081234      -2.91673494       0.03751472       0.00000000
Si      -3.07837017       2.38087798       0.18643952       0.00000000
Si       2.66089005      -0.03259303       2.87027159       0.00000000
