10
Lattice="16.28999089631971 0.0 0.0 0.0 16.28999089631971 0.0 0.0 0.0 34.36671206372826" Properties=species:S:1:pos:R:3:initial_magmoms:R:1 pbc="T T T"
Si       1.35680646      -1.35360126      -1.35425541       0.00000000
Si      -1.35738188      -1.35648459       1.35655798       0.00000000
Si       1.35808848       1.35795069       1.35672982       0.00000000
Si      -1.35832670       1.35783666      -1.36240033       0.00000000
Si       2.68984322      -0.00817758      -2.70190898       0.00000000
Si       0.00088326      -2.71458189       2.71387203       0.00000000
Si      -2.71459952       0.00016290       2.71387203       0.00000000
Si       2.71522304       0.00009774       2.71352837       0.00000000
Si       2.71579319      -2.71329498      -0.00127157       0.00000000
Si       0.00054077       2.71524978       2.71390640       0.00000000
