10
Lattice="16.28999089631971 0.0 0.0 0.0 16.28999089631971 0.0 0.0 0.0 34.36671206372826" Properties=species:S:1:pos:R:3:initial_magmoms:R:1 pbc="T T T"
Si       1.35790182      -1.35659282       1.35724532       0.00000000
Si      -1.36057338      -1.35524226      -1.35593938       0.00000000
Si      -1.35728280       1.35876845       1.35679855       0.00000000
Si       1.35601218       1.35889877      -1.35923859       0.00000000
Si      -2.70917361      -0.00395521      -2.71053846       0.00000000
Si       0.00309510      -2.71238667       2.71435317       0.00000000
Si      -2.71402803      -2.71377132      -0.00027493       0.00000000
Si       2.71547784       0.00065649       2.71297850       0.00000000
Si      -0.00169416       2.71556255       2.71380330       0.00000000
Si      -2.71534752       0.00169742       2.71418134       0.00000000
