10
Lattice="16.28999089631971 0.0 0.0 0.0 16.28999089631971 0.0 0.0 0.0 34.36671206372826" Properties=species:S:1:pos:R:3:initial_magmoms:R:1 pbc="T T T"
Si      -1.35757602      -1.35724931      -1.35573318       0.00000000
Si       1.35466013      -1.35694953       1.36006339       0.00000000
Si       1.35758096       1.35801422      -1.35611122       0.00000000
Si      -1.35511623       1.36081610       1.35947916       0.00000000
Si      -0.03051117      -2.68222248       2.72713759       0.00000000
Si      -2.71238274      -2.71304316       0.00137467       0.00000000
Si      -0.00006516      -2.71481877      -2.71335653       0.00000000
Si      -2.71547784      -0.00065649      -2.71297850       0.00000000
Si       2.71491976      -0.00023458      -2.71376893       0.00000000
Si       2.71319954       2.71586717       0.00109974       0.00000000
