10
Lattice="16.28999089631971 0.0 0.0 0.0 16.28999089631971 0.0 0.0 0.0 34.36671206372826" Properties=species:S:1:pos:R:3:initial_magmoms:R:1 pbc="T T T"
Si      -1.20479211       1.34836303      -1.61417100       0.00000000
Si       1.51392744       1.42984887       1.34899730       0.00000000
Si      -0.74894904      -1.92579895       1.38735057       0.00000000
Si       1.48012569      -1.32709258      -1.62369059       0.00000000
Si      -2.47871898       2.73753025      -0.20547869       0.00000000
Si      -2.51630001      -2.77252057      -0.01013819       0.00000000
Si       2.79471240      -2.58402898      -0.18918886       0.00000000
Si       2.81168658       2.64413968      -0.26768247       0.00000000
Si      -2.56176540      -0.00567272      -2.98918392       0.00000000
Si       1.26247500      -3.52466245       1.40535874       0.00000000
