10
Lattice="16.28999089631971 0.0 0.0 0.0 16.28999089631971 0.0 0.0 0.0 34.36671206372826" Properties=species:S:1:pos:R:3:initial_magmoms:R:1 pbc="T T T"
Si      -1.33905429      -1.35521397       1.34521696       0.00000000
Si      -1.35382932       1.35092970      -1.35937606       0.00000000
Si       1.36127385      -1.36376622      -1.35697038       0.00000000
Si       1.35651717       1.35480672       1.38879398       0.00000000
Si       2.47780674      -0.26055855       2.82652618       0.00000000
Si       0.01128897      -2.66089005       2.74408039       0.00000000
Si      -2.70989037       2.71269225       0.00725138       0.00000000
Si       0.00346977       2.71059084      -2.71510924       0.00000000
Si      -2.71179630      -0.00454491      -2.71555600       0.00000000
Si       2.72098368       2.71094922       0.00154650       0.00000000
