10
Lattice="16.28999089631971 0.0 0.0 0.0 16.28999089631971 0.0 0.0 0.0 34.36671206372826" Properties=species:S:1:pos:R:3:initial_magmoms:R:1 pbc="T T T"
Si       1.34073076       1.35889551       1.35796702       0.00000000
Si      -1.35777194       1.35457866      -1.35191847       0.00000000
Si       1.35570453      -1.35871632      -1.35305258       0.00000000
Si      -1.36546082      -1.36562328       1.36875817       0.00000000
Si       2.51148491      -0.11324808       2.70576149       0.00000000
Si      -0.24123905       2.45778633       2.83157809       0.00000000
Si      -0.00025654       2.71326240      -2.71022916       0.00000000
Si       2.71442573      -0.00188964      -2.71060720       0.00000000
Si      -2.71539683      -0.00182448      -2.71026353       0.00000000
Si      -2.71261124      -2.71376739       0.00532684       0.00000000
