10
Lattice="16.28999089631971 0.0 0.0 0.0 16.28999089631971 0.0 0.0 0.0 34.36671206372826" Properties=species:S:1:pos:R:3:initial_magmoms:R:1 pbc="T T T"
Si       1.70331728       0.25689330       1.57801720       0.00000000
Si      -1.86116508       0.52561314       1.36587137       0.00000000
Si       0.41547645       1.35096228      -1.90302338       0.00000000
Si       0.47014569      -2.19274803      -0.79782367       0.00000000
Si       2.41007848       0.21392028      -2.66689271       0.00000000
Si      -0.97093287       1.92710700       3.05925768       0.00000000
Si      -1.68018318       1.32370911      -3.10919254       0.00000000
Si       2.75479280      -1.92845907       1.72314791       0.00000000
Si       2.26903314      -2.09103327      -2.33095792       0.00000000
Si      -1.17617058      -3.01035942      -2.19857727       0.00000000
