10
Lattice="16.28999089631971 0.0 0.0 0.0 16.28999089631971 0.0 0.0 0.0 34.36671206372826" Properties=species:S:1:pos:R:3:initial_magmoms:R:1 pbc="T T T"
Si       1.35619137       1.35601218       1.35769209       0.00000000
Si      -1.35698958       1.35725022      -1.35758899       0.00000000
Si      -1.35729909      -1.35966114       1.35573318       0.00000000
Si       1.35778779      -1.35790182      -1.35758899       0.00000000
Si      -0.00346977      -2.71059084       2.71510924       0.00000000
Si      -0.00184077       2.71492398       2.71332217       0.00000000
Si       2.71373503      -0.00289962      -2.71479994       0.00000000
Si       0.00179190       2.71417464      -2.71462810       0.00000000
Si      -2.71432125       2.71459818       0.00061860       0.00000000
Si       2.71537142       2.71415835       0.00000000       0.00000000
