10
Lattice="16.28999089631971 0.0 0.0 0.0 16.28999089631971 0.0 0.0 0.0 34.36671206372826" Properties=species:S:1:pos:R:3:initial_magmoms:R:1 pbc="T T T"
Si      -1.35651717      -1.35480672      -1.38879398       0.00000000
Si       1.36446651       1.35614250      -1.38724747       0.00000000
Si       1.12128957      -1.61536527       1.43773220       0.00000000
Si      -1.24993170       1.48180356       1.53753319       0.00000000
Si      -0.26305092      -0.73829538       3.72686581       0.00000000
Si      -2.69557146      -2.71002069      -0.04357702       0.00000000
Si       2.70064321       2.71365336      -0.00828238       0.00000000
Si       2.70325938      -2.71425609      -0.03587887       0.00000000
Si      -2.70811476       2.71844262      -0.00412401       0.00000000
Si       0.00314397       2.71179630      -2.74621113       0.00000000
