10
Lattice="16.28999089631971 0.0 0.0 0.0 16.28999089631971 0.0 0.0 0.0 34.36671206372826" Properties=species:S:1:pos:R:3:initial_magmoms:R:1 pbc="T T T"
Si       2.24091334      -0.67875543       0.69534207       0.00000000
Si      -1.47147570       1.63432683       1.07567869       0.00000000
Si      -1.41288057      -1.93906386       0.52842286       0.00000000
Si       1.15527721       2.34659079      -0.66365595       0.00000000
Si       2.37018427       1.09424817      -2.36453421       0.00000000
Si       0.18119367      -3.57778899       0.09031577       0.00000000
Si       2.55040868       0.95135229       2.48179350       0.00000000
Si       3.26991518      -0.90986166      -1.44587712       0.00000000
Si      -1.55387052      -1.72245573       2.87714838       0.00000000
Si      -2.55780693       0.39048759       2.72981820       0.00000000
