10
Lattice="16.28999089631971 0.0 0.0 0.0 16.28999089631971 0.0 0.0 0.0 34.36671206372826" Properties=species:S:1:pos:R:3:initial_magmoms:R:1 pbc="T T T"
Si      -1.08633123      -1.24383924       1.65413951       0.00000000
Si      -1.78075764       0.29167245      -1.50110446       0.00000000
Si       0.00402363       2.28719745       0.80194767       0.00000000
Si       1.47147570      -1.63432683      -1.07567869       0.00000000
Si       2.62675291       0.71226396      -1.73933464       0.00000000
Si      -1.01455749       0.18643905       3.43818526       0.00000000
Si      -0.55951263       1.13018391      -3.38467626       0.00000000
Si       0.05859513      -3.57339069      -0.54725583       0.00000000
Si      -1.78220745       2.18290887       2.47244575       0.00000000
Si      -0.08239482      -3.35678256       1.80146969       0.00000000
