10
Lattice="16.28999089631971 0.0 0.0 0.0 16.28999089631971 0.0 0.0 0.0 34.36671206372826" Properties=species:S:1:pos:R:3:initial_magmoms:R:1 pbc="T T T"
Si       0.07177374       1.43027829       1.78404575       0.00000000
Si       1.08633123       1.24383924      -1.65413951       0.00000000
Si       1.00393641      -2.11294332       0.14733018       0.00000000
Si      -2.27155905      -0.36409779      -0.59578165       0.00000000
Si       1.14492636      -2.32955145      -2.20139534       0.00000000
Si      -0.78481962      -3.17573550       1.33054237       0.00000000
Si      -0.69442641       1.53551169      -3.15524396       0.00000000
Si      -0.69587622       3.42674811       0.81830624       0.00000000
Si      -1.17454158       0.36689967       3.40880171       0.00000000
Si      -2.10150774      -0.45229185      -3.01262203       0.00000000
