10
Lattice="16.28999089631971 0.0 0.0 0.0 16.28999089631971 0.0 0.0 0.0 34.36671206372826" Properties=species:S:1:pos:R:3:initial_magmoms:R:1 pbc="T T T"
Si       0.63040671      -1.82299761       1.29294516       0.00000000
Si      -2.23824600      -0.14353119      -0.65334593       0.00000000
Si      -0.03626154       1.86213012       1.44993239       0.00000000
Si       1.29971394       0.49155075      -1.92281861       0.00000000
Si       0.53972028       3.47280713      -0.17626696       0.00000000
Si      -0.42870393       1.78139851      -3.02265712       0.00000000
Si       2.83773429      -1.17281484       1.87329615       0.00000000
Si      -2.10424446       0.17091468      -2.99296426       0.00000000
Si      -2.86433586      -2.33425926      -0.29393865       0.00000000
Si      -1.15582437      -1.92728619       2.96344324       0.00000000
