10
Lattice="16.28999089631971 0.0 0.0 0.0 16.28999089631971 0.0 0.0 0.0 34.36671206372826" Properties=species:S:1:pos:R:3:initial_magmoms:R:1 pbc="T T T"
Si      -1.35776824       1.35576783      -1.35916985       0.00000000
Si       1.35674523      -1.35897696      -1.35923859       0.00000000
Si       1.36065483       1.36254447       1.35305258       0.00000000
Si      -1.37421625      -1.35576783       1.35136861       0.00000000
Si       2.60607420      -0.10611306       2.69820081       0.00000000
Si      -0.09563859       2.60276733       2.74813567       0.00000000
Si      -2.71300912       2.71463076       0.00000000       0.00000000
Si      -2.71494701      -2.71466334      -0.00659841       0.00000000
Si       0.00021177       2.71365336      -2.71665574       0.00000000
Si       2.71783989       2.71336014      -0.00254314       0.00000000
