10
Lattice="16.28999089631971 0.0 0.0 0.0 16.28999089631971 0.0 0.0 0.0 34.36671206372826" Properties=species:S:1:pos:R:3:initial_magmoms:R:1 pbc="T T T"
Si       1.35640314       1.35696282       1.35693602       0.00000000
Si       1.35703845      -1.35716688      -1.35820759       0.00000000
Si      -1.35758742       1.35727070      -1.35796702       0.00000000
Si      -1.35823088      -1.35747639       1.35721095       0.00000000
Si       2.71453302      -2.71471032       0.00027493       0.00000000
Si       2.71445157       0.00094844      -2.71521234       0.00000000
Si      -2.71521677      -2.71480806      -0.00010310       0.00000000
Si       2.71551042      -0.00294701       2.71490304       0.00000000
Si      -2.71492622       2.71551949      -0.00030930       0.00000000
Si       2.71547784       2.71498192       0.00006873       0.00000000
