10
Lattice="16.28999089631971 0.0 0.0 0.0 16.28999089631971 0.0 0.0 0.0 34.36671206372826" Properties=species:S:1:pos:R:3:initial_magmoms:R:1 pbc="T T T"
Si      -1.19679372      -1.42501662      -1.50268532       0.00000000
Si      -1.39558059       1.39406562       1.35731405       0.00000000
Si       1.49591070       1.35167904      -1.35614558       0.00000000
Si       0.90306873      -2.06708697       0.95312693       0.00000000
Si       2.51903673      -1.05365349       2.41577501       0.00000000
Si      -2.47798756       0.04435767      -2.87185590       0.00000000
Si      -2.47033940       2.88401418      -0.08237705       0.00000000
Si       0.25949970      -2.66523948      -2.89776841       0.00000000
Si      -0.23294700       2.18061198       3.32388151       0.00000000
Si       0.26259480       2.74584240      -2.88721783       0.00000000
