10
Lattice="16.28999089631971 0.0 0.0 0.0 16.28999089631971 0.0 0.0 0.0 34.36671206372826" Properties=species:S:1:pos:R:3:initial_magmoms:R:1 pbc="T T T"
Si       1.12730221      -0.68652576      -1.96966047       0.00000000
Si       1.49084614       1.73877831       0.64066460       0.00000000
Si      -2.05046044       0.91189791      -0.89590632       0.00000000
Si       0.77218510      -1.31416317       1.96667056       0.00000000
Si      -1.72151647       3.06390465       0.05103460       0.00000000
Si       0.51642395       3.45289356      -0.54447212       0.00000000
Si       3.19921102      -1.22971581       1.11540663       0.00000000
Si      -2.54119669      -2.56601709       0.59935579       0.00000000
Si      -0.23851329      -3.46107114       1.34081802       0.00000000
Si       1.91761156      -2.90745549      -1.62001335       0.00000000
