10
Lattice="16.28999089631971 0.0 0.0 0.0 16.28999089631971 0.0 0.0 0.0 34.36671206372826" Properties=species:S:1:pos:R:3:initial_magmoms:R:1 pbc="T T T"
Si       1.35665195      -1.35679410      -1.35786392       0.00000000
Si       1.35698590       1.35733167       1.35731405       0.00000000
Si      -1.35735557       1.35749457      -1.35745152       0.00000000
Si      -1.35918005      -1.35814617       1.35769209       0.00000000
Si      -2.71357952       0.00001629      -2.71462810       0.00000000
Si       2.71396244      -0.00195480      -2.71449064       0.00000000
Si      -2.71537142      -2.71415835       0.00000000       0.00000000
Si      -2.71486643       2.71506403       0.00017183       0.00000000
Si       2.71521677       2.71480806       0.00010310       0.00000000
Si       2.71536338      -2.71477737       0.00000000       0.00000000
