10
Lattice="16.28999089631971 0.0 0.0 0.0 16.28999089631971 0.0 0.0 0.0 34.36671206372826" Properties=species:S:1:pos:R:3:initial_magmoms:R:1 pbc="T T T"
Si       1.35731049       1.35483930      -1.35662672       0.00000000
Si      -1.35665195       1.35679410       1.35786392       0.00000000
Si       1.35871143      -1.35798327       1.35786392       0.00000000
Si      -1.35828834      -1.36026387      -1.35693602       0.00000000
Si      -2.71400752       2.71428867       0.00041240       0.00000000
Si       0.00377114       2.71137276      -2.71720561       0.00000000
Si      -2.71408897       0.00338832      -2.71500614       0.00000000
Si       0.00033394       2.71412577       2.71517797       0.00000000
Si      -2.71423558      -2.71526607       0.00027493       0.00000000
Si       2.71560327       2.71443528      -0.00024057       0.00000000
