10
Lattice="16.28999089631971 0.0 0.0 0.0 16.28999089631971 0.0 0.0 0.0 34.36671206372826" Properties=species:S:1:pos:R:3:initial_magmoms:R:1 pbc="T T T"
Si       1.32717888      -1.34843733      -1.36020086       0.00000000
Si      -1.40575532      -1.21026555       1.44463992       0.00000000
Si      -1.38494159       1.37077485      -1.36013212       0.00000000
Si       1.33410213       1.39217502       1.40102853       0.00000000
Si      -2.02004308       0.70586592       2.78006236       0.00000000
Si      -0.43636023       2.66044112       2.43584518       0.00000000
Si       2.56049478      -2.74260069       0.17087139       0.00000000
Si      -2.82493754      -2.56047849       0.07708458       0.00000000
Si       2.67900453       0.01822811      -2.72545362       0.00000000
Si      -0.03503979      -2.69389359      -2.72387275       0.00000000
