10
Lattice="16.28999089631971 0.0 0.0 0.0 16.28999089631971 0.0 0.0 0.0 34.36671206372826" Properties=species:S:1:pos:R:3:initial_magmoms:R:1 pbc="T T T"
Si       2.26688854       0.91823472      -0.76699671       0.00000000
Si      -1.15168917       1.12681188       2.07245136       0.00000000
Si      -1.75928988       0.11733687      -1.97969555       0.00000000
Si       1.18995502      -1.78201197       1.76452545       0.00000000
Si       1.19212973       2.40818328      -2.20668781       0.00000000
Si      -0.02495204      -0.52966935       3.46540371       0.00000000
Si      -3.21121758      -0.11174940       1.82006209       0.00000000
Si      -0.22705248       1.05797034      -3.57424315       0.00000000
Si       3.08353882      -0.28048122       2.49736163       0.00000000
Si       3.42952213       1.70478108       1.19957075       0.00000000
