10
Lattice="10.86 0.0 0.0 0.0 10.86 0.0 0.0 0.0 10.86" Properties=species:S:1:pos:R:3:initial_magmoms:R:1 pbc="T T T"
Si       1.32785220       1.34118828       1.34404446       0.00000000
Si       1.32785220      -1.37381172      -1.37095554       0.00000000
Si      -1.38714780      -1.37381172       1.34404446       0.00000000
Si      -1.46615430       1.76068836      -1.33794114       0.00000000
Si      -2.47745922       0.16328010      -2.72402466       0.00000000
Si       2.68535220       2.69868828      -0.01345554       0.00000000
Si       2.68535220      -0.01631172       2.70154446       0.00000000
Si       2.68535220      -0.01631172      -2.72845554       0.00000000
Si       2.68535220      -2.73131172      -0.01345554       0.00000000
Si      -0.02964780      -2.73131172       2.70154446       0.00000000
