10
Lattice="10.86 0.0 0.0 0.0 10.86 0.0 0.0 0.0 10.86" Properties=species:S:1:pos:R:3:initial_magmoms:R:1 pbc="T T T"
Si      -1.35750000       1.35750000      -1.35750000       0.00000000
Si       1.35750000       1.35750000       1.35750000       0.00000000
Si      -1.35750000      -1.35750000       1.35750000       0.00000000
Si       1.35750000      -1.35750000      -1.35750000       0.00000000
Si       2.71422894      -0.06179340      -2.39123082       0.00000000
Si       2.67023508      -0.07288146       2.52674190       0.00000000
Si      -2.69123832       0.13192728       2.61602196       0.00000000
Si       2.72975874       2.63837184      -0.07834404       0.00000000
Si      -2.68535220      -2.69868828       0.01345554       0.00000000
Si      -2.69384472       2.71766070       0.04358118       0.00000000
