10
Lattice="16.28999089631971 0.0 0.0 0.0 16.28999089631971 0.0 0.0 0.0 34.397273925272025" Properties=species:S:1:pos:R:3:initial_magmoms:R:1 pbc="T T T"
Si       1.88719650       0.91601928       1.01059901       0.00000000
Si       0.13287753       0.25977663      -2.33123703       0.00000000
Si      -1.05320551      -1.88984688       0.97076006       0.00000000
Si      -1.81289292       1.56338388      -0.32116241       0.00000000
Si       0.41358681       2.15176239       2.40643772       0.00000000
Si      -2.34528075      -0.55113957       2.38986167       0.00000000
Si      -1.73648794       1.63735677      -2.72064878       0.00000000
Si      -0.83179021       3.44294037       0.93353875       0.00000000
Si       2.72934063       2.52089379      -0.60710710       0.00000000
Si      -0.48203739      -1.89182775      -3.30990881       0.00000000
