10
Lattice="16.28999089631971 0.0 0.0 0.0 16.28999089631971 0.0 0.0 0.0 34.397273925272025" Properties=species:S:1:pos:R:3:initial_magmoms:R:1 pbc="T T T"
Si       0.19937983       2.27146131       0.42370586       0.00000000
Si       2.09464802      -0.88029531       0.47960146       0.00000000
Si      -0.86769500      -0.82557720      -1.99463024       0.00000000
Si      -1.56476106      -0.86990229       1.48627264       0.00000000
Si      -2.13479703       2.83503015       0.18337197       0.00000000
Si       1.11429953       2.10543363       2.65464550       0.00000000
Si       1.52018117      -2.94601392       1.38662368       0.00000000
Si       1.83584879       2.85762438      -1.25577638       0.00000000
Si      -3.12817752      -0.21266595      -1.83021117       0.00000000
Si       2.74883813       0.41992362       2.33856877       0.00000000
