10
Lattice="16.28999089631971 0.0 0.0 0.0 16.28999089631971 0.0 0.0 0.0 34.397273925272025" Properties=species:S:1:pos:R:3:initial_magmoms:R:1 pbc="T T T"
Si      -1.91170318      -0.05664033       1.34641325       0.00000000
Si       1.19677743       1.96663047       0.54640100       0.00000000
Si       1.63453860      -1.68551001      -0.31607673       0.00000000
Si      -0.91491971       0.16602768      -2.23093964       0.00000000
Si      -1.11429953      -2.10543363      -2.65464550       0.00000000
Si      -2.72708351       2.16480321       0.93388651       0.00000000
Si       0.42845958       3.36925160      -1.22977202       0.00000000
Si       3.41829360      -0.44768178      -1.14367560       0.00000000
Si       3.41568720       1.15224057       0.55654820       0.00000000
Si       0.98034849      -2.98572894      -2.17504404       0.00000000
