10
Lattice="16.28999089631971 0.0 0.0 0.0 16.28999089631971 0.0 0.0 0.0 34.397273925272025" Properties=species:S:1:pos:R:3:initial_magmoms:R:1 pbc="T T T"
Si       1.33092558      -1.24383177       1.50306884       0.00000000
Si       1.33576371       1.43278532      -1.32334096       0.00000000
Si      -0.89195895      -1.73484495      -1.40104444       0.00000000
Si      -1.37508777       1.45314782       1.48261965       0.00000000
Si       2.67807600      -2.56959342       0.10810725       0.00000000
Si      -2.68115481      -2.58612777       0.01672396       0.00000000
Si      -0.03520269      -2.59824753       2.86368473       0.00000000
Si       2.70334179       2.83743944       0.11168113       0.00000000
Si       2.67779907       0.11653052       2.86320316       0.00000000
Si      -2.61400743       2.94045740       0.12375458       0.00000000
