10
Lattice="16.28999089631971 0.0 0.0 0.0 16.28999089631971 0.0 0.0 0.0 34.397273925272025" Properties=species:S:1:pos:R:3:initial_magmoms:R:1 pbc="T T T"
Si      -1.35808101      -1.35608711       1.35645726       0.00000000
Si       1.35681039       1.35782037       1.35652605       0.00000000
Si       1.35754344      -1.35730072      -1.35745478       0.00000000
Si      -1.35819504       1.35803214      -1.35742038       0.00000000
Si       2.70861975       0.00179190       2.71893404       0.00000000
Si       2.71420722       2.71477737      -0.00027518       0.00000000
Si       2.71476108      -2.71480808       0.00017199       0.00000000
Si      -2.71443528       2.71520091      -0.00082554       0.00000000
Si      -2.71568961       0.00074934      -2.71401522       0.00000000
Si       0.00008145      -2.71458617      -2.71515033       0.00000000
