10
Lattice="16.28999089631971 0.0 0.0 0.0 16.28999089631971 0.0 0.0 0.0 34.397273925272025" Properties=species:S:1:pos:R:3:initial_magmoms:R:1 pbc="T T T"
Si      -1.24625016       1.39235517       1.39298718       0.00000000
Si       1.12132215       1.54823418      -1.34785793       0.00000000
Si       0.82885149      -2.14601202       0.64776982       0.00000000
Si      -1.71364284      -1.16339922      -1.26795302       0.00000000
Si      -1.35664749      -3.03877244       1.18856407       0.00000000
Si       2.36437947       0.12497688      -2.69857084       0.00000000
Si      -0.57028032      -1.77197733       3.23379272       0.00000000
Si      -0.36100269      -2.58037347      -2.69485593       0.00000000
Si      -0.91859310       0.61317189       3.62093426       0.00000000
Si       3.06805860      -1.88765262       1.16933598       0.00000000
