10
Lattice="16.28999089631971 0.0 0.0 0.0 16.28999089631971 0.0 0.0 0.0 34.397273925272025" Properties=species:S:1:pos:R:3:initial_magmoms:R:1 pbc="T T T"
Si      -1.02268620       1.58289441      -1.36904666       0.00000000
Si      -1.45811790      -1.77146812       0.47433867       0.00000000
Si      -0.04313592       1.26711276       2.12761017       0.00000000
Si       1.84682988      -0.51399511      -1.58870778       0.00000000
Si       3.30463827       0.75348906      -0.16503821       0.00000000
Si       0.31314267       3.43697334      -0.61089593       0.00000000
Si      -3.67702767      -0.95707823       0.46419147       0.00000000
Si      -1.45551150      -3.37139047      -1.22588513       0.00000000
Si       1.67927094       0.34259010       3.47911422       0.00000000
Si      -0.91170243      -2.73189394       2.70376483       0.00000000
