10
Lattice="16.28999089631971 0.0 0.0 0.0 16.28999089631971 0.0 0.0 0.0 34.397273925272025" Properties=species:S:1:pos:R:3:initial_magmoms:R:1 pbc="T T T"
Si      -1.38236940      -0.92507978      -1.63720796       0.00000000
Si       0.55412064       2.16746595      -0.77256320       0.00000000
Si      -1.22694651       0.31583052       2.03955310       0.00000000
Si       2.00937150      -1.35321356      -0.16417828       0.00000000
Si      -0.78384222      -3.19472054      -1.17931120       0.00000000
Si       0.75955383       3.27132522       1.20524675       0.00000000
Si      -1.32436071       2.70176166       1.98960823       0.00000000
Si       3.06465399      -0.20895183      -1.99418307       0.00000000
Si      -0.99567738       0.72001800      -3.47357625       0.00000000
Si      -0.05317056      -0.94795582       3.59960793       0.00000000
