10
Lattice="16.28999089631971 0.0 0.0 0.0 16.28999089631971 0.0 0.0 0.0 34.397273925272025" Properties=species:S:1:pos:R:3:initial_magmoms:R:1 pbc="T T T"
Si      -0.20543319      -1.10385927      -1.97780996       0.00000000
Si      -2.08391454      -0.56956356       0.78436148       0.00000000
Si       1.14670197      -1.13176404       1.69616492       0.00000000
Si       0.68719365       2.26448919      -0.11602207       0.00000000
Si      -2.02189851       0.67038237       2.72412803       0.00000000
Si       3.29659101      -0.71260605       0.86976995       0.00000000
Si      -0.02922426      -0.21049938       3.55812480       0.00000000
Si      -0.75955383      -3.27132522      -1.20524675       0.00000000
Si       1.95678738      -1.09512783      -2.81228829       0.00000000
Si       3.35785770       0.18901287      -1.31339184       0.00000000
