10
Lattice="16.28999089631971 0.0 0.0 0.0 16.28999089631971 0.0 0.0 0.0 34.397273925272025" Properties=species:S:1:pos:R:3:initial_magmoms:R:1 pbc="T T T"
Si      -0.06126669      -0.90161892       2.18316180       0.00000000
Si      -0.58534857       2.29089528       0.07956094       0.00000000
Si       2.30637078      -0.36066060      -0.46611772       0.00000000
Si      -1.40107032      -1.28414070      -1.49889645       0.00000000
Si      -2.67066405       2.07547632       1.19736977       0.00000000
Si      -3.35785770      -0.18901287       1.31339184       0.00000000
Si       0.86024232      -3.07064871       1.75632579       0.00000000
Si       1.33820721       0.39143241       3.57422273       0.00000000
Si      -3.56329089      -1.29287214      -0.66441811       0.00000000
Si       1.22526864       3.53670561       0.93123792       0.00000000
