10
Lattice="16.28999089631971 0.0 0.0 0.0 16.28999089631971 0.0 0.0 0.0 34.397273925272025" Properties=species:S:1:pos:R:3:initial_magmoms:R:1 pbc="T T T"
Si       2.28229416      -0.45188460       0.09995853       0.00000000
Si       0.21390399       2.06925354      -1.09077256       0.00000000
Si      -0.60300693       0.16713540       2.28239799       0.00000000
Si      -1.33582887      -1.85407893      -0.75815074       0.00000000
Si       2.69257410      -0.39773664      -2.20122038       0.00000000
Si      -0.31314267      -3.43697334       0.61089593       0.00000000
Si      -0.35627859      -2.16986058       2.73850610       0.00000000
Si      -2.03058108       2.59486668      -1.42769405       0.00000000
Si       1.43079957       1.44523251      -3.02754655       0.00000000
Si      -3.50298531      -1.10190447      -0.19468868       0.00000000
