10
Lattice="16.28999089631971 0.0 0.0 0.0 16.28999089631971 0.0 0.0 0.0 34.397273925272025" Properties=species:S:1:pos:R:3:initial_magmoms:R:1 pbc="T T T"
Si       1.41252219      -1.22961807      -1.36546935       0.00000000
Si       1.84775841       0.97313202       1.12503227       0.00000000
Si      -1.31776326       1.49460750      -1.32422699       0.00000000
Si      -0.77507820      -2.00077038       1.11897834       0.00000000
Si       0.56285208       1.49538942       3.04962961       0.00000000
Si       0.04665456      -2.57500917      -2.71367125       0.00000000
Si       2.79997407      -2.50950708       0.05861299       0.00000000
Si      -2.72416041      -2.64938931      -0.00306136       0.00000000
Si      -2.67388947       0.14713128      -2.70806449       0.00000000
Si       2.75911875       0.13923063      -2.70833967       0.00000000
