10
Lattice="16.28999089631971 0.0 0.0 0.0 16.28999089631971 0.0 0.0 0.0 34.397273925272025" Properties=species:S:1:pos:R:3:initial_magmoms:R:1 pbc="T T T"
Si      -0.96889662      -0.27142398      -2.13889248       0.00000000
Si       0.36808884       2.33064288       0.43949421       0.00000000
Si       2.24024967      -0.95291613       0.17167689       0.00000000
Si      -1.40680440      -0.86703525       1.82604910       0.00000000
Si       0.51639300      -1.61371998       2.95937112       0.00000000
Si       1.64159217      -2.92978908       1.27514205       0.00000000
Si      -1.80628407       3.23398854       0.35326020       0.00000000
Si       1.89048708       2.21491872       2.32577298       0.00000000
Si       0.83036646       0.39535830      -3.66823053       0.00000000
Si       3.42816534       0.60229017       1.58554323       0.00000000
