10
Lattice="16.28999089631971 0.0 0.0 0.0 16.28999089631971 0.0 0.0 0.0 34.397273925272025" Properties=species:S:1:pos:R:3:initial_magmoms:R:1 pbc="T T T"
Si      -1.35412254       1.35172184       1.35831471       0.00000000
Si       1.35826020       1.35646106      -1.35745478       0.00000000
Si      -1.35718506      -1.35827649      -1.35690442       0.00000000
Si       1.35658233      -1.35894438       1.36024096       0.00000000
Si       0.00104256       2.71396843      -2.71508154       0.00000000
Si      -2.71415835      -0.00133578      -2.71525353       0.00000000
Si      -2.71458189       2.71518203      -0.00116951       0.00000000
Si       2.71523349      -0.00084708      -2.71525353       0.00000000
Si      -2.71490769      -2.71564074       0.00020638       0.00000000
Si       2.71682991       2.71425187       0.00068795       0.00000000
