10
Lattice="16.28999089631971 0.0 0.0 0.0 16.28999089631971 0.0 0.0 0.0 34.397273925272025" Properties=species:S:1:pos:R:3:initial_magmoms:R:1 pbc="T T T"
Si       1.89374508       0.68347953      -1.30637480       0.00000000
Si      -1.86536790      -0.54692046      -1.42645575       0.00000000
Si       0.53527311      -2.09455191       1.09655131       0.00000000
Si      -0.54591048       1.59070221       1.77706736       0.00000000
Si       2.31746427      -1.33999911      -2.53170957       0.00000000
Si      -2.80702764       1.65866409      -1.96439501       0.00000000
Si       2.83410162      -1.82702124       1.82023596       0.00000000
Si      -3.35934009      -1.96302645      -0.21673734       0.00000000
Si      -2.64820014       0.90108135       2.75807816       0.00000000
Si      -1.26398997      -2.76133419       2.62588936       0.00000000
