10
Lattice="16.28999089631971 0.0 0.0 0.0 16.28999089631971 0.0 0.0 0.0 34.397273925272025" Properties=species:S:1:pos:R:3:initial_magmoms:R:1 pbc="T T T"
Si      -1.49397219      -1.41610599       1.20971840       0.00000000
Si       1.86536790       0.54692046       1.42645575       0.00000000
Si      -0.94165974       2.20558455      -0.53793927       0.00000000
Si       0.59445468      -1.48688604      -1.92298067       0.00000000
Si      -0.35406315       1.79737344      -2.70823648       0.00000000
Si      -1.08191664      -0.42989310      -3.42562642       0.00000000
Si      -3.49208730      -1.33343424      -0.06676515       0.00000000
Si       2.40064101      -1.54763145       2.52300706       0.00000000
Si      -1.23716034      -0.83728971       3.63080628       0.00000000
Si       2.07870174       1.49565006      -3.00425958       0.00000000
