10
Lattice="16.28999089631971 0.0 0.0 0.0 16.28999089631971 0.0 0.0 0.0 34.397273925272025" Properties=species:S:1:pos:R:3:initial_magmoms:R:1 pbc="T T T"
Si       0.58759659      -0.40821111      -2.17029721       0.00000000
Si      -2.33435700       0.29251953       0.02449087       0.00000000
Si       0.45885672       2.13402651       1.03962379       0.00000000
Si       0.94165974      -2.20558455       0.53793927       0.00000000
Si       0.72777204       2.01149313      -2.83560966       0.00000000
Si       1.51413921       3.27828824      -0.79038100       0.00000000
Si       2.80702764      -1.65866409       1.96439501       0.00000000
Si      -3.14509401      -0.12088809       2.22306266       0.00000000
Si      -3.33008325      -0.94477113      -1.77445316       0.00000000
Si      -0.14025690      -2.63547765      -2.88768716       0.00000000
