10
Lattice="16.28999089631971 0.0 0.0 0.0 16.28999089631971 0.0 0.0 0.0 34.397273925272025" Properties=species:S:1:pos:R:3:initial_magmoms:R:1 pbc="T T T"
Si      -0.02164941       0.63953011      -2.27796074       0.00000000
Si       0.89195895       1.73484495       1.40104444       0.00000000
Si      -1.78919586      -0.85128282       1.41776841       0.00000000
Si       2.01280869      -1.95437646       0.19170781       0.00000000
Si      -0.51065892      -2.22264018       2.89798024       0.00000000
Si       2.22288453       0.49101318       2.90411328       0.00000000
Si      -3.23768637      -1.96962390      -0.09290709       0.00000000
Si       2.22772266       3.16763027       0.07770349       0.00000000
Si       0.79188948      -3.55323996       1.44914218       0.00000000
Si       3.57003495      -0.83474847       1.50915169       0.00000000
