10
Lattice="16.28999089631971 0.0 0.0 0.0 16.28999089631971 0.0 0.0 0.0 34.397273925272025" Properties=species:S:1:pos:R:3:initial_magmoms:R:1 pbc="T T T"
Si       1.35666378      -1.35412425      -1.35896826       0.00000000
Si      -1.35832536      -1.33807860       1.37324313       0.00000000
Si      -1.35783666       1.36002988      -1.35656045       0.00000000
Si       1.34109054       1.35782584       1.38263360       0.00000000
Si      -2.45995290       0.35107289       2.78122753       0.00000000
Si       0.07555302      -2.63394810       2.74793096       0.00000000
Si       2.71272483      -2.71399716      -0.00027518       0.00000000
Si      -0.00120546      -2.71231929      -2.71508154       0.00000000
Si       2.71311579       0.00174957      -2.71504714       0.00000000
Si       2.71044423       2.72046805       0.00467803       0.00000000
