10
Lattice="16.28999089631971 0.0 0.0 0.0 16.28999089631971 0.0 0.0 0.0 34.397273925272025" Properties=species:S:1:pos:R:3:initial_magmoms:R:1 pbc="T T T"
Si      -2.23920711      -0.25835940      -0.52156616       0.00000000
Si       0.81827928       1.20917412       2.05406876       0.00000000
Si       0.58960026       0.63338778      -2.38490192       0.00000000
Si       0.96140322       2.71236645       0.27369926       0.00000000
Si      -0.72935217      -2.55440951       1.73644415       0.00000000
Si       2.41538346       1.83747942      -1.34548452       0.00000000
Si       1.56307437      -2.87719586       1.18736016       0.00000000
Si      -1.81403811      -1.70803745      -2.45431566       0.00000000
Si      -3.06805860       1.88765262      -1.16933598       0.00000000
Si      -3.63833892       0.11567529       2.06445674       0.00000000
