10
Lattice="16.28999089631971 0.0 0.0 0.0 16.28999089631971 0.0 0.0 0.0 34.397273925272025" Properties=species:S:1:pos:R:3:initial_magmoms:R:1 pbc="T T T"
Si       1.52753694      -1.03712828      -1.49752055       0.00000000
Si       1.27902647       1.30870895       1.57645688       0.00000000
Si      -1.45164898       1.21821312      -1.50250816       0.00000000
Si      -1.25960617      -1.32700883       1.58763944       0.00000000
Si       1.85019460       1.30672809      -2.70421200       0.00000000
Si      -2.24344072      -2.92254917       0.14484700       0.00000000
Si       2.70379060      -2.53035113      -0.00141029       0.00000000
Si      -1.51477273      -2.49293300      -2.31211725       0.00000000
Si      -2.72511973      -0.41335160      -2.54739474       0.00000000
Si      -2.85604246       2.66373885      -0.11241035       0.00000000
