10
Lattice="16.28999089631971 0.0 0.0 0.0 16.28999089631971 0.0 0.0 0.0 34.397273925272025" Properties=species:S:1:pos:R:3:initial_magmoms:R:1 pbc="T T T"
Si      -0.14312394      -1.50319233       1.78036950       0.00000000
Si       1.45398024      -0.87488703      -1.61918378       0.00000000
Si      -0.20227293       2.03631516       1.41417591       0.00000000
Si      -0.96140322      -2.71236645      -0.27369926       0.00000000
Si       2.69030979       0.29787894       1.50921563       0.00000000
Si      -0.37180296      -2.07897867      -2.65860118       0.00000000
Si      -1.93393251       2.42079174      -1.42050502       0.00000000
Si      -1.24061382       0.71193816       3.21067774       0.00000000
Si       2.61387711       0.91194678      -2.65698451       0.00000000
Si      -2.90813967       0.72352035      -2.79089317       0.00000000
