10
Lattice="16.28999089631971 0.0 0.0 0.0 16.28999089631971 0.0 0.0 0.0 34.397273925272025" Properties=species:S:1:pos:R:3:initial_magmoms:R:1 pbc="T T T"
Si      -1.33885881       1.05476121       1.63803350       0.00000000
Si       1.61016876      -1.35081567       1.09909671       0.00000000
Si       0.93336813       1.45811790      -1.70283800       0.00000000
Si      -1.48004424      -1.49848452      -1.27180552       0.00000000
Si      -0.44170335      -0.17410752      -3.06830734       0.00000000
Si      -1.00768311       2.92648221      -1.63851506       0.00000000
Si      -2.56114638       2.39888169       0.12555012       0.00000000
Si       2.41865775       2.54669715      -0.17394711       0.00000000
Si       2.04722946      -2.83511160      -0.69461894       0.00000000
Si      -2.44820781      -0.74639151       2.76853493       0.00000000
