10
Lattice="16.28999089631971 0.0 0.0 0.0 16.28999089631971 0.0 0.0 0.0 34.397273925272025" Properties=species:S:1:pos:R:3:initial_magmoms:R:1 pbc="T T T"
Si       1.04444964      -2.06834130       0.37544645       0.00000000
Si      -2.25233685       0.09914094       0.65389254       0.00000000
Si       0.79294833       1.31015583       1.79643303       0.00000000
Si       0.19238490       0.49407570      -2.31060377       0.00000000
Si       3.16809549       0.97352298      -0.09734434       0.00000000
Si      -1.30106601       0.70244109       2.99363082       0.00000000
Si       1.89964206       2.24051031      -1.63091326       0.00000000
Si       3.15788166      -1.36917450      -0.36454251       0.00000000
Si      -0.89350650      -1.65801249      -3.03415083       0.00000000
Si      -2.79679752       2.34465228       0.88731257       0.00000000
