10
Lattice="16.28999089631971 0.0 0.0 0.0 16.28999089631971 0.0 0.0 0.0 34.397273925272025" Properties=species:S:1:pos:R:3:initial_magmoms:R:1 pbc="T T T"
Si      -0.79294833      -1.31015583      -1.79643303       0.00000000
Si      -0.32086413       2.30749479      -0.49827919       0.00000000
Si      -2.09401434      -0.60771474       1.19719779       0.00000000
Si       2.37514716      -0.33663285      -1.89377737       0.00000000
Si      -0.73101375      -2.00179665       2.48799061       0.00000000
Si       1.12404258       2.92628673       1.34194160       0.00000000
Si      -3.04528518      -1.21101489      -1.14254049       0.00000000
Si       2.06687520       0.98948718       2.64955470       0.00000000
Si       0.25150131      -3.37849713      -1.42098658       0.00000000
Si       1.10669373       0.93035448      -3.42734629       0.00000000
