10
Lattice="16.28999089631971 0.0 0.0 0.0 16.28999089631971 0.0 0.0 0.0 34.397273925272025" Properties=species:S:1:pos:R:3:initial_magmoms:R:1 pbc="T T T"
Si       1.35762489       1.35716877      -1.35803953       0.00000000
Si      -1.35824391       1.35451350       1.36123848       0.00000000
Si      -1.35731538      -1.35956340      -1.35742038       0.00000000
Si       1.35513252      -1.36044306       1.36096330       0.00000000
Si      -2.70484047      -0.01433520       2.70410880       0.00000000
Si      -2.71248048       2.71262709      -0.00041277       0.00000000
Si       0.00040725       2.71280628      -2.71501275       0.00000000
Si       2.71472850      -0.00127062      -2.71487516       0.00000000
Si      -2.71513575      -0.00179190      -2.71480636       0.00000000
Si       2.71595025       2.71472850      -0.00178866       0.00000000
