10
Lattice="16.28999089631971 0.0 0.0 0.0 16.28999089631971 0.0 0.0 0.0 34.397273925272025" Properties=species:S:1:pos:R:3:initial_magmoms:R:1 pbc="T T T"
Si      -0.88304832      -1.78575867      -1.27428212       0.00000000
Si       1.91306502       0.91900035      -1.17074627       0.00000000
Si      -1.83526398       1.69688043      -0.20786284       0.00000000
Si       0.46015992       2.22957972      -2.67094981       0.00000000
Si      -2.27050020      -0.50586966      -2.69836446       0.00000000
Si      -2.24391492      -1.34153037       2.49837859       0.00000000
Si       2.38783707      -0.76916493       2.82917736       0.00000000
Si      -2.54001825      -2.80572444       0.04378775       0.00000000
Si      -0.84602115       3.65804982      -1.29701873       0.00000000
Si      -3.68302239       0.72374841      -1.33289511       0.00000000
