10
Lattice="16.28999089631971 0.0 0.0 0.0 16.28999089631971 0.0 0.0 0.0 34.397273925272025" Properties=species:S:1:pos:R:3:initial_magmoms:R:1 pbc="T T T"
Si       1.98834111       0.82880262      -0.88019233       0.00000000
Si      -1.52469513       0.02930571      -1.76138219       0.00000000
Si      -0.42371919       2.02347864       1.22533477       0.00000000
Si       0.22113675      -2.27944341       0.83014427       0.00000000
Si       2.98994805       0.79213383       1.29519568       0.00000000
Si      -2.10413043       2.28872871      -1.89900576       0.00000000
Si      -2.31746427       1.33999911       2.53170957       0.00000000
Si      -0.70136595       3.60686664      -0.55107903       0.00000000
Si      -0.64843974      -3.53136249      -0.97973810       0.00000000
Si      -0.23978880      -0.49295169      -3.68597954       0.00000000
