10
Lattice="16.28999089631971 0.0 0.0 0.0 16.28999089631971 0.0 0.0 0.0 34.397273925272025" Properties=species:S:1:pos:R:3:initial_magmoms:R:1 pbc="T T T"
Si      -1.24537702       1.29117798      -1.47289897       0.00000000
Si       1.33537275       1.37116188       1.34502016       0.00000000
Si      -1.37496397      -1.34716671       1.34230277       0.00000000
Si       1.47360969      -1.23574311      -1.39583872       0.00000000
Si      -0.41358681      -2.15176239      -2.40643772       0.00000000
Si       0.61629957       2.11836789      -2.71803221       0.00000000
Si      -2.22647973      -0.58837851      -2.72760013       0.00000000
Si       2.69413794       0.01220121       2.70158060       0.00000000
Si       2.31575382       0.36913140      -3.01354483       0.00000000
Si      -0.02037879      -2.70298341       2.70305969       0.00000000
