10
Lattice="16.28999089631971 0.0 0.0 0.0 16.28999089631971 0.0 0.0 0.0 34.397273925272025" Properties=species:S:1:pos:R:3:initial_magmoms:R:1 pbc="T T T"
Si       0.49909302      -2.12854914      -0.84699895       0.00000000
Si       2.08880154       1.08973584       0.11832669       0.00000000
Si      -0.92846484      -0.75140883       2.08206815       0.00000000
Si      -1.11055446       1.27474137      -1.73290123       0.00000000
Si       1.27303092       1.70465076       2.31084455       0.00000000
Si      -3.57164766       1.28155059       0.43154844       0.00000000
Si      -2.94080112       0.45268281       2.50340060       0.00000000
Si       1.76754645      -3.39553647       0.68656997       0.00000000
Si      -2.29847013      -0.28046493      -3.14676757       0.00000000
Si       0.51644187      -0.13261689       3.92228894       0.00000000
