10
Lattice="16.28999089631971 0.0 0.0 0.0 16.28999089631971 0.0 0.0 0.0 34.397273925272025" Properties=species:S:1:pos:R:3:initial_magmoms:R:1 pbc="T T T"
Si       1.46504115      -1.26824166      -1.30969070       0.00000000
Si       1.35441576       1.34338743       1.36466101       0.00000000
Si      -1.36260963      -1.37152026       1.36166845       0.00000000
Si      -1.36052451       1.37340990      -1.39126044       0.00000000
Si       0.09378153      -2.48556078      -2.69963389       0.00000000
Si      -2.70767493       2.69917155       0.00370115       0.00000000
Si       2.71265967       2.70519703      -0.00535910       0.00000000
Si      -0.00050499       2.70239977       2.72294132       0.00000000
Si       2.71466334      -0.01317861       2.72149664       0.00000000
Si      -2.71533123      -0.01314603       2.72249416       0.00000000
