10
Lattice="16.28999089631971 0.0 0.0 0.0 16.28999089631971 0.0 0.0 0.0 34.397273925272025" Properties=species:S:1:pos:R:3:initial_magmoms:R:1 pbc="T T T"
Si      -1.35658233       1.35894438      -1.36024096       0.00000000
Si       1.36151820      -1.35773892      -1.36092890       0.00000000
Si       1.35975888       1.37508777       1.37025057       0.00000000
Si      -1.36112724      -1.36047564       1.38483502       0.00000000
Si      -2.71070487       2.71066622      -0.00192625       0.00000000
Si      -2.71725345      -2.70795186       0.00099752       0.00000000
Si      -2.71376739       0.00066789      -2.71714538       0.00000000
Si       2.71808424       2.71316637      -0.00299256       0.00000000
Si       2.71575477      -2.71585251       0.00072234       0.00000000
Si       0.00156384      -2.71430496      -2.71773013       0.00000000
