10
Lattice="16.28999089631971 0.0 0.0 0.0 16.28999089631971 0.0 0.0 0.0 34.397273925272025" Properties=species:S:1:pos:R:3:initial_magmoms:R:1 pbc="T T T"
Si       1.52469513      -0.02930571       1.76138219       0.00000000
Si      -0.57943530       2.25942300      -0.13762357       0.00000000
Si       1.28490633      -0.52225740      -1.92459735       0.00000000
Si      -2.06368236      -0.72311310       0.94365534       0.00000000
Si      -0.56285208      -1.49538942      -3.04962961       0.00000000
Si      -1.46329812      -3.08154672       1.36822113       0.00000000
Si       3.51303624       0.79949691       0.88118986       0.00000000
Si       0.87625539      -3.56066820       0.78164409       0.00000000
Si       1.10097594       1.99417293       2.98671696       0.00000000
Si      -3.74005368       0.33387984      -0.55899041       0.00000000
