10
Lattice="16.28999089631971 0.0 0.0 0.0 16.28999089631971 0.0 0.0 0.0 34.397273925272025" Properties=species:S:1:pos:R:3:initial_magmoms:R:1 pbc="T T T"
Si      -1.98834111      -0.82880262       0.88019233       0.00000000
Si       1.00160694      -0.03666879       2.17538801       0.00000000
Si      -0.39728052       2.45527767      -0.21997069       0.00000000
Si       0.21222612       1.89387540      -2.44392768       0.00000000
Si      -2.41206030       1.19467602       2.10552711       0.00000000
Si      -0.27492633       1.76161689       2.96790164       0.00000000
Si      -3.51303624      -0.79949691      -0.88118986       0.00000000
Si       3.28952115      -0.14424795       1.73517145       0.00000000
Si       3.43241703       1.48458915       0.05451971       0.00000000
Si      -2.22812991      -1.32175431      -2.80578720       0.00000000
