10
Lattice="16.28999089631971 0.0 0.0 0.0 16.28999089631971 0.0 0.0 0.0 34.397273925272025" Properties=species:S:1:pos:R:3:initial_magmoms:R:1 pbc="T T T"
Si       2.13713397       0.56694087       0.86237454       0.00000000
Si      -0.27764676       1.58338800      -1.77641381       0.00000000
Si      -1.89374508      -0.68347953       1.30637480       0.00000000
Si       0.42371919      -2.02347864      -1.22533477       0.00000000
Si       2.01477978       1.26060165      -2.32549780       0.00000000
Si       2.41206030      -1.19467602      -2.10552711       0.00000000
Si      -1.68041124       0.26525007      -3.12434053       0.00000000
Si       3.41366724      -1.23134481       0.06986090       0.00000000
Si      -1.10097594      -1.99417293      -2.98671696       0.00000000
Si       3.02614443       2.39505747      -0.28670144       0.00000000
