10
Lattice="16.28999089631971 0.0 0.0 0.0 16.28999089631971 0.0 0.0 0.0 34.397273925272025" Properties=species:S:1:pos:R:3:initial_magmoms:R:1 pbc="T T T"
Si      -1.40276448      -1.31813793      -1.34792673       0.00000000
Si       2.29242654      -0.32278635      -0.54908399       0.00000000
Si       0.27764676      -1.58338800       1.77641381       0.00000000
Si       0.72935217       2.55440951      -1.73644415       0.00000000
Si      -1.50985494       2.29605011      -2.25801031       0.00000000
Si       3.30379119       0.81166947       1.48971237       0.00000000
Si       0.70136595      -3.60686664       0.55107903       0.00000000
Si       2.41478073      -1.01644713       2.63878834       0.00000000
Si      -0.82332918      -3.57756093      -1.21030316       0.00000000
Si       2.68970706      -2.77806402      -0.32911330       0.00000000
