10
Lattice="16.28999089631971 0.0 0.0 0.0 16.28999089631971 0.0 0.0 0.0 34.397273925272025" Properties=species:S:1:pos:R:3:initial_magmoms:R:1 pbc="T T T"
Si       1.32093981      -0.80083269       1.80210859       0.00000000
Si       1.28682855       1.57099131      -1.26244945       0.00000000
Si      -0.27890109      -2.06975853      -1.21749219       0.00000000
Si      -2.05853472       1.10881143       0.61498920       0.00000000
Si       0.91787634       1.00768311      -3.48172841       0.00000000
Si      -3.04000722      -0.40200462       2.16654791       0.00000000
Si       2.97461916      -2.19146112       0.86426639       0.00000000
Si       1.69446951      -2.31023151      -2.58818993       0.00000000
Si       2.88370467       0.84773160       2.44815855       0.00000000
Si       3.41484012      -1.36907676      -1.26086718       0.00000000
