10
Lattice="16.28999089631971 0.0 0.0 0.0 16.28999089631971 0.0 0.0 0.0 34.397273925272025" Properties=species:S:1:pos:R:3:initial_magmoms:R:1 pbc="T T T"
Si      -1.48921551      -1.25296066      -1.31823640       0.00000000
Si       1.32618519      -1.33655138       1.45109453       0.00000000
Si      -1.37324700       1.36585460       1.44975991       0.00000000
Si       1.17543753       1.39087604      -1.64786566       0.00000000
Si      -2.30125572       0.53736149      -2.77640645       0.00000000
Si      -0.08692344      -2.74833870      -2.52740444       0.00000000
Si       2.77187382      -2.59987164       0.05218413       0.00000000
Si      -0.61180353       2.25064595      -3.01852900       0.00000000
Si       2.67924888       2.71987940      -0.02400243       0.00000000
Si      -2.74699899      -2.66833851       0.06519319       0.00000000
