10
Lattice="16.28999089631971 0.0 0.0 0.0 16.28999089631971 0.0 0.0 0.0 34.397273925272025" Properties=species:S:1:pos:R:3:initial_magmoms:R:1 pbc="T T T"
Si       0.49819707       0.28098621      -2.25642803       0.00000000
Si      -2.25911349      -0.04966821       0.57443480       0.00000000
Si       0.81536337      -1.88098512       1.14601462       0.00000000
Si       1.07504226       2.02264785       0.61815376       0.00000000
Si       2.65570983      -0.65989976      -2.20397216       0.00000000
Si      -1.97579781      -0.25396110       2.89700882       0.00000000
Si      -0.29528883       2.51939511      -2.49817221       0.00000000
Si      -2.96831493       2.18193147       0.22853562       0.00000000
Si      -0.53346492      -2.09832060       3.09176630       0.00000000
Si      -0.00294849       3.77318754      -0.52149736       0.00000000
