10
Lattice="16.28999089631971 0.0 0.0 0.0 16.28999089631971 0.0 0.0 0.0 34.397273925272025" Properties=species:S:1:pos:R:3:initial_magmoms:R:1 pbc="T T T"
Si      -1.44233289       1.84435950      -0.19475747       0.00000000
Si       1.34882829       0.21733548      -1.94575168       0.00000000
Si       1.29951846      -0.40102870       1.95479817       0.00000000
Si      -1.83558978      -1.63657633       0.08210634       0.00000000
Si      -0.91569348      -2.93591560       1.89085360       0.00000000
Si      -1.72564857       2.04865239      -2.51733150       0.00000000
Si       0.53346492       2.09832060      -3.09176630       0.00000000
Si      -0.09376524      -1.46315299       3.51024377       0.00000000
Si      -3.35101590       1.63775343       1.12682093       0.00000000
Si      -0.49689387       3.86992326       0.54636660       0.00000000
