10
Lattice="16.28999089631971 0.0 0.0 0.0 16.28999089631971 0.0 0.0 0.0 34.397273925272025" Properties=species:S:1:pos:R:3:initial_magmoms:R:1 pbc="T T T"
Si       1.35218925      -1.35625653       1.35377427       0.00000000
Si       1.35567725       1.35834165      -1.35831471       0.00000000
Si      -1.35887922      -1.35627282      -1.35831471       0.00000000
Si      -1.36138788       1.35729909       1.36017216       0.00000000
Si      -0.00192222      -2.68894143       2.72161703       0.00000000
Si       2.71514457      -2.71221984      -0.00051596       0.00000000
Si      -2.71500543      -2.71344159      -0.00168547       0.00000000
Si       2.71382345       0.00110772      -2.71597587       0.00000000
Si      -0.00154755      -2.71432125      -2.71559750       0.00000000
Si       2.71453369       2.71580364       0.00151348       0.00000000
