10
Lattice="16.28999089631971 0.0 0.0 0.0 16.28999089631971 0.0 0.0 0.0 34.397273925272025" Properties=species:S:1:pos:R:3:initial_magmoms:R:1 pbc="T T T"
Si      -1.42043913      -1.25555175      -1.43516312       0.00000000
Si       1.31173552      -1.40937822       1.42021952       0.00000000
Si      -1.41103980       1.30362354       1.44336546       0.00000000
Si       1.13249709       1.86168636      -1.14691961       0.00000000
Si      -2.36327175       0.68124780      -2.74277622       0.00000000
Si      -2.66719428       2.77172721       0.13234015       0.00000000
Si       2.65003832      -0.04533507       2.80321772       0.00000000
Si      -0.06035445       2.66453901       2.80449042       0.00000000
Si      -0.06007752      -2.76273513       2.80359609       0.00000000
Si      -2.77329105      -0.04820211       2.80689823       0.00000000
