10
Lattice="16.28999089631971 0.0 0.0 0.0 16.28999089631971 0.0 0.0 0.0 34.397273925272025" Properties=species:S:1:pos:R:3:initial_magmoms:R:1 pbc="T T T"
Si       1.27438299      -0.24752655      -1.90540366       0.00000000
Si      -0.49909302       2.12854914       0.84699895       0.00000000
Si       1.26845343      -1.26698733       1.53356892       0.00000000
Si      -1.70725716      -1.74643461      -0.67969051       0.00000000
Si       0.17221788      -2.30726673      -2.15327055       0.00000000
Si      -1.89964206      -2.24051031       1.63091326       0.00000000
Si      -1.42755786       1.37714031       2.92906710       0.00000000
Si      -3.39622065      -0.12878874      -1.19630346       0.00000000
Si       1.58970852       3.21828498       0.96532563       0.00000000
Si      -1.10669373      -0.93035448       3.42734629       0.00000000
