10
Lattice="16.28999089631971 0.0 0.0 0.0 16.28999089631971 0.0 0.0 0.0 34.397273925272025" Properties=species:S:1:pos:R:3:initial_magmoms:R:1 pbc="T T T"
Si       2.17780100      -0.93494826      -0.03047600       0.00000000
Si       0.32499187       2.15444114       0.95971888       0.00000000
Si      -0.89396262       0.37348199      -2.17813979       0.00000000
Si      -1.45609794      -1.24568001       1.45139378       0.00000000
Si       1.30618337      -3.02954904      -0.53075023       0.00000000
Si       0.14061528       2.45254814      -2.57845549       0.00000000
Si      -0.63884493      -0.55136763       3.50130047       0.00000000
Si      -0.58647258       1.78600206       3.11133836       0.00000000
Si      -0.56474172      -3.12816870      -1.96587410       0.00000000
Si       2.98853801      -0.52154064      -2.22904779       0.00000000
