10
Lattice="16.28999089631971 0.0 0.0 0.0 16.28999089631971 0.0 0.0 0.0 34.397273925272025" Properties=species:S:1:pos:R:3:initial_magmoms:R:1 pbc="T T T"
Si       0.81725301       0.69431238       2.04990669       0.00000000
Si      -0.17612748      -2.35338372       0.03632354       0.00000000
Si      -2.30413905       0.58668435       0.03474127       0.00000000
Si       1.45609794       1.24568001      -1.45139378       0.00000000
Si      -2.67309126       0.02337615      -2.18453769       0.00000000
Si       0.86962536       3.03168207       1.65994457       0.00000000
Si       2.08435504      -2.96629497      -0.12809552       0.00000000
Si      -1.39655799      -1.77490953      -2.97705132       0.00000000
Si      -0.70726293      -0.13657536       3.74534926       0.00000000
Si       2.76228131      -1.78386903      -1.98214402       0.00000000
