10
Lattice="16.28999089631971 0.0 0.0 0.0 16.28999089631971 0.0 0.0 0.0 34.397273925272025" Properties=species:S:1:pos:R:3:initial_magmoms:R:1 pbc="T T T"
Si      -0.44022096      -0.82238436       2.12513357       0.00000000
Si       2.26048252      -0.61291125      -0.16441906       0.00000000
Si       0.17612748       2.35338372      -0.03632354       0.00000000
Si      -1.72037061      -0.94115475      -1.32732275       0.00000000
Si      -1.22043051       0.57847419      -3.01337487       0.00000000
Si      -0.56290095      -2.87288811      -2.01385832       0.00000000
Si       2.93840879       0.56951469      -2.01846756       0.00000000
Si      -0.96039324      -3.04994412       1.69375711       0.00000000
Si      -2.12801157       2.94006807      -0.00158228       0.00000000
Si       3.12817752       0.21266595       1.83021117       0.00000000
