10
Lattice="16.28999089631971 0.0 0.0 0.0 16.28999089631971 0.0 0.0 0.0 34.397273925272025" Properties=species:S:1:pos:R:3:initial_magmoms:R:1 pbc="T T T"
Si       0.98383455       1.59554034       1.44279244       0.00000000
Si      -1.70947260      -1.11457809       1.53737123       0.00000000
Si       0.72866799       0.42961617      -2.45696425       0.00000000
Si      -1.87496271       1.44707328      -1.13679614       0.00000000
Si       2.09021877      -2.02461894       0.25811148       0.00000000
Si      -0.64896102      -1.36778985      -2.94918952       0.00000000
Si       2.27066310       0.15229521       2.84385954       0.00000000
Si       2.24344072       2.92254917      -0.14484700       0.00000000
Si      -0.48167901       2.50919757      -2.69224174       0.00000000
Si      -1.40555007      -3.20505750      -1.33774513       0.00000000
