10
Lattice="16.28999089631971 0.0 0.0 0.0 16.28999089631971 0.0 0.0 0.0 34.397273925272025" Properties=species:S:1:pos:R:3:initial_magmoms:R:1 pbc="T T T"
Si       0.08041070       2.31045957       0.07725632       0.00000000
Si      -1.18249992      -0.44155674      -1.97433583       0.00000000
Si      -1.38024423      -0.85761963       1.69901990       0.00000000
Si       2.22838892      -0.74497428       0.18739645       0.00000000
Si      -0.59384543      -2.69366553      -2.20658636       0.00000000
Si      -3.44255823      -0.02964780       0.97966931       0.00000000
Si      -0.43871414       0.24949764       3.56053261       0.00000000
Si      -3.45058920      -0.47776941      -1.30032087       0.00000000
Si       3.01076504      -0.96850566      -1.98458623       0.00000000
Si      -1.13024160       3.02679603      -1.88596919       0.00000000
