10
Lattice="16.28999089631971 0.0 0.0 0.0 16.28999089631971 0.0 0.0 0.0 34.397273925272025" Properties=species:S:1:pos:R:3:initial_magmoms:R:1 pbc="T T T"
Si       1.34879571      -1.34770428      -1.35797074       0.00000000
Si      -1.35405412      -1.35578412       1.35662924       0.00000000
Si      -1.36478272       1.36617714      -1.35222639       0.00000000
Si       1.33362972       1.36728486       1.38294317       0.00000000
Si      -0.58573953       2.18225727       2.65337280       0.00000000
Si      -2.37676639       0.26876871       2.70417760       0.00000000
Si       2.65263102      -0.06599079       2.71198578       0.00000000
Si       2.70508482      -2.70511740       0.00175426       0.00000000
Si      -0.00736308      -2.70609480      -2.71270813       0.00000000
Si       2.70673011       0.00790065      -2.71267373       0.00000000
