10
Lattice="16.28999089631971 0.0 0.0 0.0 16.28999089631971 0.0 0.0 0.0 34.397273925272025" Properties=species:S:1:pos:R:3:initial_magmoms:R:1 pbc="T T T"
Si      -0.90096406       0.24829218       2.13087791       0.00000000
Si      -0.78248526       1.88856486      -1.27558922       0.00000000
Si       1.91936925      -0.81497241      -1.27042963       0.00000000
Si      -1.79102686      -1.91348856       0.05080480       0.00000000
Si      -2.14368974       0.55030878      -2.64934831       0.00000000
Si       0.58573953      -2.18225727      -2.65337280       0.00000000
Si      -2.95911827       1.48770054       1.67452903       0.00000000
Si      -3.49502669      -0.82156986      -1.27411014       0.00000000
Si      -2.06782393       3.21300702       0.25003392       0.00000000
Si      -0.76831459      -3.53804139      -1.29674355       0.00000000
