10
Lattice="16.28999089631971 0.0 0.0 0.0 16.28999089631971 0.0 0.0 0.0 34.397273925272025" Properties=species:S:1:pos:R:3:initial_magmoms:R:1 pbc="T T T"
Si      -1.33859558      -1.34263809      -1.36982404       0.00000000
Si      -1.35407108       1.35975888       1.35594130       0.00000000
Si       1.35854690      -1.35568638       1.35580371       0.00000000
Si       1.36447646       1.36643778      -1.39075480       0.00000000
Si       0.21530167      -2.48404581      -2.76464460       0.00000000
Si      -2.62542413       0.10060704      -2.77089115       0.00000000
Si      -2.71238015       0.00223173       2.71343047       0.00000000
Si       0.00244676      -2.71326240       2.71305210       0.00000000
Si      -2.71189145      -2.71669959      -0.00416207       0.00000000
Si       2.71765418       0.00159642       2.71305210       0.00000000
