10
Lattice="16.28999089631971 0.0 0.0 0.0 16.28999089631971 0.0 0.0 0.0 34.397273925272025" Properties=species:S:1:pos:R:3:initial_magmoms:R:1 pbc="T T T"
Si       1.35840274      -1.35487188      -1.36089451       0.00000000
Si      -1.35446774       1.36014074      -1.36068812       0.00000000
Si       1.36235632       1.35675079       1.38170487       0.00000000
Si      -1.34847302      -1.35242838       1.39969465       0.00000000
Si      -2.71365647      -2.71386513      -0.00378370       0.00000000
Si      -2.71326551       0.00188160      -2.71855567       0.00000000
Si       0.00144156      -2.71329498      -2.71886524       0.00000000
Si       2.72009198      -2.71541268       0.00068795       0.00000000
Si       0.00177852       2.71787966      -2.71803971       0.00000000
Si       2.71873991       2.71734209      -0.00227022       0.00000000
