10
Lattice="16.28999089631971 0.0 0.0 0.0 16.28999089631971 0.0 0.0 0.0 34.376317263855086" Properties=species:S:1:pos:R:3:initial_magmoms:R:1 pbc="T T T"
Si      -1.35889551       1.35870003       1.36302174       0.00000000
Si       1.35711990      -1.35998694       1.36436242       0.00000000
Si      -1.35531171      -1.37244879      -1.39002435       0.00000000
Si       1.36199061       1.36684503      -1.39314916       0.00000000
Si       2.71283886      -2.71093945       0.00715028       0.00000000
Si      -2.71549413       2.71099809       0.00515645       0.00000000
Si       2.71733490       2.71288773       0.00498457       0.00000000
Si      -2.71480995      -2.71617179       0.00422829       0.00000000
Si       2.71441899      -0.00048870       2.72126517       0.00000000
Si      -0.00060273       2.71476108       2.72102454       0.00000000
