10
Lattice="16.28999089631971 0.0 0.0 0.0 16.28999089631971 0.0 0.0 0.0 34.376317263855086" Properties=species:S:1:pos:R:3:initial_magmoms:R:1 pbc="T T T"
Si       1.35602847      -1.35691249       1.36058102       0.00000000
Si      -1.35741312       1.35830255       1.35934347       0.00000000
Si      -1.35000117      -1.34756528      -1.37729480       0.00000000
Si       1.35949824       1.34372300      -1.39425264       0.00000000
Si       2.71435383      -2.71440011       0.00226884       0.00000000
Si       2.71480995       2.71617179      -0.00422829       0.00000000
Si       2.71425609       0.00091550       2.71689938       0.00000000
Si      -0.00109143      -2.71418834       2.71707126       0.00000000
Si      -2.71666701      -2.71607798      -0.00309387       0.00000000
Si      -2.71600238       0.00130320       2.71710563       0.00000000
