10
Lattice="16.28999089631971 0.0 0.0 0.0 16.28999089631971 0.0 0.0 0.0 34.376317263855086" Properties=species:S:1:pos:R:3:initial_magmoms:R:1 pbc="T T T"
Si      -1.35749457      -1.34113498      -1.38268501       0.00000000
Si       1.35599589       1.37044838      -1.38495384       0.00000000
Si      -1.44700812       1.29313604       1.39894501       0.00000000
Si       1.40242239      -1.44010509       1.72507332       0.00000000
Si       0.14457375       2.29945079       2.85227339       0.00000000
Si       2.20850046       0.75181934       2.96238080       0.00000000
Si       2.69768916      -2.70150495       0.00092816       0.00000000
Si      -2.72723922      -2.69801889      -0.01632876       0.00000000
Si       2.70743058       2.73268334      -0.03698894       0.00000000
Si      -0.00555489      -2.70243348      -2.74574112       0.00000000
