10
Lattice="16.28999089631971 0.0 0.0 0.0 16.28999089631971 0.0 0.0 0.0 34.376317263855086" Properties=species:S:1:pos:R:3:initial_magmoms:R:1 pbc="T T T"
Si      -1.59158187      -1.00631475      -1.45332838       0.00000000
Si      -0.83083887       0.87252498       2.12693269       0.00000000
Si       1.05876855       1.63849707      -1.54978838       0.00000000
Si       2.06392671      -1.54763145       0.11010741       0.00000000
Si      -1.06445376      -1.47457080       2.65302814       0.00000000
Si       2.52079605      -0.06281424       2.11146334       0.00000000
Si      -0.14457375      -2.29945079      -2.85227339       0.00000000
Si       2.56285683       0.43323255      -2.88926233       0.00000000
Si      -3.31060041      -2.03510155      -0.15434975       0.00000000
Si       1.09082727       1.39411449       3.46317527       0.00000000
