10
Lattice="16.28999089631971 0.0 0.0 0.0 16.28999089631971 0.0 0.0 0.0 34.376317263855086" Properties=species:S:1:pos:R:3:initial_magmoms:R:1 pbc="T T T"
Si       1.21376790      -1.47768056      -1.40025131       0.00000000
Si       0.95377950      -0.33425451       2.16278721       0.00000000
Si      -2.34634644      -0.42194358      -0.17583496       0.00000000
Si       1.00227483       2.12573097      -0.60186090       0.00000000
Si       3.17119059       1.24022286      -0.08676587       0.00000000
Si      -0.50059170       1.28645388       3.20201824       0.00000000
Si       3.41246178      -1.07598708      -0.64249373       0.00000000
Si      -2.39520015      -2.00676836      -1.88488891       0.00000000
Si       0.61644618      -0.95418675      -3.67871490       0.00000000
Si       3.08812788       0.71868222       2.18815695       0.00000000
