10
Lattice="16.28999089631971 0.0 0.0 0.0 16.28999089631971 0.0 0.0 0.0 34.376317263855086" Properties=species:S:1:pos:R:3:initial_magmoms:R:1 pbc="T T T"
Si      -1.75820318      -0.78978807      -1.37584411       0.00000000
Si       0.80891253       1.93692987      -1.34841180       0.00000000
Si       1.95212844      -1.74015482      -0.08394701       0.00000000
Si      -2.52306755       0.33306534       2.00070278       0.00000000
Si      -1.11972573      -1.46197863       2.67227889       0.00000000
Si      -1.74513860       2.51366103       1.51431200       0.00000000
Si      -0.31985904      -2.01211962      -2.79507117       0.00000000
Si       2.39436936       0.73656864      -2.78661459       0.00000000
Si      -3.15858932      -2.20498182       0.07270595       0.00000000
Si       0.92333349      -3.51747431      -1.31166349       0.00000000
