10
Lattice="16.28999089631971 0.0 0.0 0.0 16.28999089631971 0.0 0.0 0.0 34.376317263855086" Properties=species:S:1:pos:R:3:initial_magmoms:R:1 pbc="T T T"
Si      -1.35829278      -1.35606105      -1.35800280       0.00000000
Si       1.35822762       1.35654975      -1.35762466       0.00000000
Si       1.35733167      -1.35769005       1.35793404       0.00000000
Si      -1.35770634       1.35764118       1.35789967       0.00000000
Si       2.71402803      -0.00081450       2.71401176       0.00000000
Si      -0.00133578       2.71396287       2.71414927       0.00000000
Si      -2.71489140      -0.00197109       2.71493993       0.00000000
Si       2.71508688       2.71480995      -0.00020626       0.00000000
Si      -0.00158013      -2.71534752       2.71480242       0.00000000
Si      -2.71523349      -2.71497285       0.00044689       0.00000000
