10
Lattice="16.28999089631971 0.0 0.0 0.0 16.28999089631971 0.0 0.0 0.0 34.376317263855086" Properties=species:S:1:pos:R:3:initial_magmoms:R:1 pbc="T T T"
Si      -1.17685476       1.48278096      -1.49237990       0.00000000
Si       1.49726277      -1.22580621      -1.48584839       0.00000000
Si       1.53200934       1.24673886       1.47264788       0.00000000
Si      -1.84766067      -0.96174531       1.44968449       0.00000000
Si      -0.33790347       1.87765056       2.71789629       0.00000000
Si      -2.48995908       2.71884987      -0.01564123       0.00000000
Si      -2.55207285       0.13501152      -2.85003893       0.00000000
Si       0.86056812       0.03578913       3.75327717       0.00000000
Si       0.16303032      -2.58033600      -2.85581415       0.00000000
Si       2.72653875      -2.73144204      -0.16620959       0.00000000
