10
Lattice="16.28999089631971 0.0 0.0 0.0 16.28999089631971 0.0 0.0 0.0 34.376317263855086" Properties=species:S:1:pos:R:3:initial_magmoms:R:1 pbc="T T T"
Si      -1.69541433       1.55470131      -0.26009136       0.00000000
Si       0.56742957      -1.34162811      -1.84820935       0.00000000
Si      -0.47886084      -1.37811771       1.84975629       0.00000000
Si       2.08852461       1.16445807       0.19350440       0.00000000
Si       1.69746687      -1.85940576       2.53484230       0.00000000
Si      -3.15553590       0.36945720      -1.67711833       0.00000000
Si      -2.33989560       1.87752024       1.99908710       0.00000000
Si      -1.42614063       0.14941188       3.31676645       0.00000000
Si       3.12971625      -0.07294662       1.88526704       0.00000000
Si       2.32331238      -2.74507677      -1.02506798       0.00000000
