10
Lattice="16.28999089631971 0.0 0.0 0.0 16.28999089631971 0.0 0.0 0.0 34.376317263855086" Properties=species:S:1:pos:R:3:initial_magmoms:R:1 pbc="T T T"
Si       1.57516155      -1.58399073       0.61537080       0.00000000
Si      -1.58894289      -0.73889811      -1.51596206       0.00000000
Si      -0.29556576       1.09455768       2.04656082       0.00000000
Si       1.40501250       1.21155246      -1.44769066       0.00000000
Si       2.91975444       1.97600958       0.22073046       0.00000000
Si       3.57497082      -0.26770986       0.23186839       0.00000000
Si       1.89636777       1.91731671       2.46141444       0.00000000
Si      -2.17601820       1.17504657      -2.78070186       0.00000000
Si       2.38549131      -0.54941283      -2.89668762       0.00000000
Si       1.38906459      -3.46568121      -0.78824940       0.00000000
