10
Lattice="16.28999089631971 0.0 0.0 0.0 16.28999089631971 0.0 0.0 0.0 34.376317263855086" Properties=species:S:1:pos:R:3:initial_magmoms:R:1 pbc="T T T"
Si       0.30447639      -1.54839708      -1.68650307       0.00000000
Si      -1.05832872      -1.50076512       1.42252172       0.00000000
Si       1.66171032       1.21694445       1.22330397       0.00000000
Si      -1.34641737       1.29334455      -1.52548431       0.00000000
Si      -2.33626293       2.76340302      -0.02585101       0.00000000
Si      -2.33233704      -0.11632689       2.78617598       0.00000000
Si       0.59872266      -0.12279402      -3.59081460       0.00000000
Si      -2.87241570      -2.30692464      -0.02193210       0.00000000
Si       2.39664996      -2.66896989      -0.97333159       0.00000000
Si       0.39534201       2.56541436       2.78054514       0.00000000
