10
Lattice="16.28999089631971 0.0 0.0 0.0 16.28999089631971 0.0 0.0 0.0 34.376317263855086" Properties=species:S:1:pos:R:3:initial_magmoms:R:1 pbc="T T T"
Si      -1.20303279       1.36896273      -1.47175409       0.00000000
Si      -1.52223534      -1.20958137       1.32833602       0.00000000
Si       1.21368645       1.37344248       1.57209862       0.00000000
Si       1.51182603      -1.34851878      -1.45030326       0.00000000
Si      -2.67061518       2.55401136       0.01478182       0.00000000
Si      -0.49423860      -1.37249766       3.42017047       0.00000000
Si      -2.48894910      -2.83476951      -0.00237197       0.00000000
Si      -2.55218688       0.01057221      -2.83976040       0.00000000
Si       1.51348761      -0.08091243       3.53110291       0.00000000
Si       0.16583220      -2.70580158      -2.84000104       0.00000000
