10
Lattice="16.28999089631971 0.0 0.0 0.0 16.28999089631971 0.0 0.0 0.0 34.376317263855086" Properties=species:S:1:pos:R:3:initial_magmoms:R:1 pbc="T T T"
Si       1.69541433      -1.55470131       0.26009136       0.00000000
Si      -1.46012157      -1.18524411      -1.41702697       0.00000000
Si      -0.64448127       0.32281893       2.25917846       0.00000000
Si       0.80080011       1.69776009      -1.46312563       0.00000000
Si      -1.32030450       2.73429279      -1.97007347       0.00000000
Si      -0.31086207      -0.84165543      -3.54729416       0.00000000
Si       1.21655349      -2.93281902       2.10984765       0.00000000
Si       3.78393894      -0.39024324       0.45359576       0.00000000
Si       0.26927370      -1.40528943       3.57685781       0.00000000
Si       1.69686414       0.44992980      -3.43636172       0.00000000
