10
Lattice="16.28999089631971 0.0 0.0 0.0 16.28999089631971 0.0 0.0 0.0 34.376317263855086" Properties=species:S:1:pos:R:3:initial_magmoms:R:1 pbc="T T T"
Si       0.27106560      -0.19007172      -2.34766315       0.00000000
Si      -0.82165131      -1.87740621       1.23616072       0.00000000
Si       1.86181668       0.84937689       1.38800444       0.00000000
Si      -1.73731221       1.78711074      -0.08573458       0.00000000
Si      -2.08801962      -0.52893630       2.79340189       0.00000000
Si       2.15998884       1.23390234      -2.55433368       0.00000000
Si       0.61592490       2.20046949       2.80929751       0.00000000
Si       2.73093705       2.51204573      -0.22341181       0.00000000
Si      -0.70089354       3.42621121       1.26443526       0.00000000
Si      -3.36036636       0.89127477       1.38582498       0.00000000
