10
Lattice="16.28999089631971 0.0 0.0 0.0 16.28999089631971 0.0 0.0 0.0 34.376317263855086" Properties=species:S:1:pos:R:3:initial_magmoms:R:1 pbc="T T T"
Si       1.03641867       1.63910047       1.35016984       0.00000000
Si      -1.62305415      -0.89583597       1.47155956       0.00000000
Si      -1.00333368       0.25203888      -2.19207585       0.00000000
Si       1.73731221      -1.78711074       0.08573458       0.00000000
Si       2.00837781      -1.97718246      -2.26192856       0.00000000
Si      -0.35070741      -2.31604704       2.87913647       0.00000000
Si      -3.08231235      -2.11805838       0.07274033       0.00000000
Si       2.72165175       2.57925176      -0.00309387       0.00000000
Si       2.35323711       0.41335875       2.89503209       0.00000000
Si      -3.60277785      -0.39643344      -1.36247172       0.00000000
