10
Lattice="16.28999089631971 0.0 0.0 0.0 16.28999089631971 0.0 0.0 0.0 34.376317263855086" Properties=species:S:1:pos:R:3:initial_magmoms:R:1 pbc="T T T"
Si      -2.25209250       0.60901794      -0.30794322       0.00000000
Si       0.82723878      -1.80136449       1.31953568       0.00000000
Si       0.01086543      -1.12813137      -2.09939724       0.00000000
Si       1.54119690       1.81977219       0.37614587       0.00000000
Si      -3.16083015      -1.54039869       0.24981284       0.00000000
Si       2.31430401      -1.62491121      -2.31094922       0.00000000
Si      -0.36481455      -1.66219902       3.28603400       0.00000000
Si       3.01755960      -1.14974820       1.90609910       0.00000000
Si       2.36019294       2.39958216      -1.73572998       0.00000000
Si      -2.50211142       1.49872887      -2.52635134       0.00000000
