10
Lattice="16.28999089631971 0.0 0.0 0.0 16.28999089631971 0.0 0.0 0.0 34.376317263855086" Properties=species:S:1:pos:R:3:initial_magmoms:R:1 pbc="T T T"
Si      -0.31781790       2.05952841       1.00286086       0.00000000
Si       0.08306271       0.52154064      -2.27492282       0.00000000
Si      -2.13434838      -1.05293673      -0.02536974       0.00000000
Si       2.06233029      -0.85240683       0.83761381       0.00000000
Si       0.32433390      -1.79466930      -2.83065067       0.00000000
Si       1.21305114       3.37121550      -0.29116757       0.00000000
Si       1.61523495       2.27507769      -2.34625372       0.00000000
Si      -2.52043767       2.64735306       0.66435708       0.00000000
Si      -2.08585305       1.40704875      -2.79001784       0.00000000
Si      -3.58871958       0.56777166       1.01386129       0.00000000
