10
Lattice="16.28999089631971 0.0 0.0 0.0 16.28999089631971 0.0 0.0 0.0 34.376317263855086" Properties=species:S:1:pos:R:3:initial_magmoms:R:1 pbc="T T T"
Si       1.88353125      -1.37156817      -0.41650369       0.00000000
Si       0.66165093       1.08861997       2.00118405       0.00000000
Si      -0.72405792       1.47716906      -1.72837345       0.00000000
Si      -1.87194906      -1.46313426       0.67552939       0.00000000
Si       0.72995490      -0.89953284       3.33244206       0.00000000
Si       1.90290006      -2.43315489       1.75322754       0.00000000
Si      -2.96666801       0.73910173      -2.02566000       0.00000000
Si       1.22497542      -2.55453168      -2.39754321       0.00000000
Si      -3.77028955      -0.10223115       0.02715731       0.00000000
Si      -0.10298538       3.72931043      -1.19034940       0.00000000
