10
Lattice="16.28999089631971 0.0 0.0 0.0 16.28999089631971 0.0 0.0 0.0 34.376317263855086" Properties=species:S:1:pos:R:3:initial_magmoms:R:1 pbc="T T T"
Si      -0.14504616      -0.65928074      -2.16942184       0.00000000
Si       2.19713004       0.62812611       0.21822098       0.00000000
Si      -1.41793047       1.89234414       0.02959803       0.00000000
Si      -1.28645388      -1.86221741       1.96371384       0.00000000
Si       1.62989595       0.93349845       2.46499512       0.00000000
Si      -3.24376254       0.39122064      -0.37731467       0.00000000
Si      -2.38324329      -1.40372233      -1.84349980       0.00000000
Si       1.35837423      -2.47090697      -1.91744330       0.00000000
Si      -0.12368997       2.74874202       2.18406616       0.00000000
Si      -1.85740209      -3.14036081      -0.36720803       0.00000000
