10
Lattice="16.28999089631971 0.0 0.0 0.0 16.28999089631971 0.0 0.0 0.0 34.376317263855086" Properties=species:S:1:pos:R:3:initial_magmoms:R:1 pbc="T T T"
Si      -1.36068741      -1.35656604       1.35040563       0.00000000
Si      -1.35674523       1.35483930      -1.35838094       0.00000000
Si       1.35801585      -1.35951453      -1.35734965       0.00000000
Si       1.36850661       1.35343836       1.36288424       0.00000000
Si      -0.05989833       2.70399339       2.63312424       0.00000000
Si       2.71676475       2.71103067       0.00103129       0.00000000
Si      -2.71344159      -0.00203625      -2.71445866       0.00000000
Si       2.71360449      -2.71446786       0.00309387       0.00000000
Si       0.00179190       2.71360449      -2.71466492       0.00000000
Si      -2.71236645       2.71642266       0.00000000       0.00000000
