10
Lattice="16.28999089631971 0.0 0.0 0.0 16.28999089631971 0.0 0.0 0.0 34.376317263855086" Properties=species:S:1:pos:R:3:initial_magmoms:R:1 pbc="T T T"
Si       1.97156241       1.26692217       0.00092816       0.00000000
Si      -0.06890670      -0.17984160      -2.38368955       0.00000000
Si      -2.02083966       1.11275361       0.73018776       0.00000000
Si       0.52794261      -1.83801699       1.53304710       0.00000000
Si      -2.08542951       2.28967353      -1.31857314       0.00000000
Si      -2.27152647       0.40798305      -2.72219333       0.00000000
Si       3.04054479       0.42792201       1.88598895       0.00000000
Si      -1.29788946      -3.33914049       1.12613441       0.00000000
Si       3.09772269       0.87413769      -2.04267629       0.00000000
Si       1.68860511       3.56294880      -0.23152463       0.00000000
