10
Lattice="16.28999089631971 0.0 0.0 0.0 16.28999089631971 0.0 0.0 0.0 34.376317263855086" Properties=species:S:1:pos:R:3:initial_magmoms:R:1 pbc="T T T"
Si       1.27384542       1.38215763      -1.40212968       0.00000000
Si       1.38284181      -1.26890955       1.41276430       0.00000000
Si      -1.35008262       1.43413902       1.39214537       0.00000000
Si      -0.73081827      -2.08259505      -1.11951318       0.00000000
Si       0.37406727       0.63951282      -3.49392975       0.00000000
Si      -1.21788927      -1.32333444      -3.28756860       0.00000000
Si       0.01653435      -2.63122596       2.76890390       0.00000000
Si       2.77364943      -2.62817973       0.04702683       0.00000000
Si      -2.76050340      -2.67967242       0.03645267       0.00000000
Si      -2.69837334       0.08809632       2.77237591       0.00000000
