10
Lattice="16.28999089631971 0.0 0.0 0.0 16.28999089631971 0.0 0.0 0.0 34.376317263855086" Properties=species:S:1:pos:R:3:initial_magmoms:R:1 pbc="T T T"
Si      -1.35783666       1.35635427       1.36216233       0.00000000
Si       1.35879777      -1.35850455       1.36229984       0.00000000
Si       1.36630746       1.36231641      -1.35613960       0.00000000
Si      -1.35912357      -1.37622807      -1.36328300       0.00000000
Si      -0.01653435       2.63122596      -2.76890390       0.00000000
Si       2.71386513      -2.71428867       0.00735654       0.00000000
Si       2.71507059       2.71386513       0.00539708       0.00000000
Si      -2.71189404      -2.71720458       0.00391890       0.00000000
Si      -2.71490769       2.71932228       0.00347201       0.00000000
Si      -2.71474479      -0.00052128       2.71975261       0.00000000
