10
Lattice="16.28999089631971 0.0 0.0 0.0 16.28999089631971 0.0 0.0 0.0 34.376317263855086" Properties=species:S:1:pos:R:3:initial_magmoms:R:1 pbc="T T T"
Si      -2.17632771       0.48128805      -0.68508601       0.00000000
Si      -0.16094520      -0.38713185       2.29657991       0.00000000
Si       0.63856800      -1.83212001      -1.35446203       0.00000000
Si       1.43224938       1.78645914      -0.64957525       0.00000000
Si      -1.69746687       1.85940576      -2.53484230       0.00000000
Si      -1.23284349      -2.55935448       2.22665844       0.00000000
Si       0.62584551      -0.88567101      -3.55991028       0.00000000
Si      -3.12360750       2.00881764       0.78192415       0.00000000
Si       2.81035080      -2.51480133      -0.66019754       0.00000000
Si       1.94869125      -0.34138953       3.28318077       0.00000000
