10
Lattice="16.28999089631971 0.0 0.0 0.0 16.28999089631971 0.0 0.0 0.0 34.376317263855086" Properties=species:S:1:pos:R:3:initial_magmoms:R:1 pbc="T T T"
Si       2.10963645       0.04574232       0.98660086       0.00000000
Si       0.16094520       0.38713185      -2.29657991       0.00000000
Si      -1.07189829      -2.17222263      -0.06992147       0.00000000
Si      -0.98047881       1.76096529       1.44899696       0.00000000
Si       1.18947951       0.28170297       3.12855601       0.00000000
Si      -3.30048432      -1.57951098      -0.48879713       0.00000000
Si       2.73706209      -2.19240594       1.15291357       0.00000000
Si      -2.01538251       0.86841990      -2.98166592       0.00000000
Si      -0.99642672      -2.91626838       2.10843822       0.00000000
Si      -0.81032976      -1.03457790       3.51205842       0.00000000
