10
Lattice="16.28999089631971 0.0 0.0 0.0 16.28999089631971 0.0 0.0 0.0 34.376317263855086" Properties=species:S:1:pos:R:3:initial_magmoms:R:1 pbc="T T T"
Si       1.77422535      -0.04300560       1.47055092       0.00000000
Si      -0.65521638       2.24371944      -0.01113793       0.00000000
Si       0.92015694      -0.23596065      -2.14195515       0.00000000
Si      -1.99980927      -1.31628087       0.38350241       0.00000000
Si      -2.16995832       1.47926232      -1.67955905       0.00000000
Si      -1.18947951      -0.28170297      -3.12855601       0.00000000
Si       1.54758258      -2.47410891      -1.97564243       0.00000000
Si      -1.67860305       2.18502657       2.22954605       0.00000000
Si       2.05718265      -2.33903223       1.70300371       0.00000000
Si      -3.57497082       0.26770986      -0.23186839       0.00000000
