10
Lattice="16.28999089631971 0.0 0.0 0.0 16.28999089631971 0.0 0.0 0.0 34.376317263855086" Properties=species:S:1:pos:R:3:initial_magmoms:R:1 pbc="T T T"
Si      -1.34829072      -1.34604270       1.38023054       0.00000000
Si       1.36837629       1.36388025       1.37751480       0.00000000
Si       1.35008262      -1.43413902      -1.39214537       0.00000000
Si      -1.47080781       1.37582082      -1.39619834       0.00000000
Si      -2.71467963      -2.69299764       0.00081816       0.00000000
Si       2.62392804      -0.05198139      -2.79427505       0.00000000
Si       2.73292443      -2.70304857       0.02061893       0.00000000
Si       2.72000646       2.71831230      -0.00160537       0.00000000
Si      -2.71669959       2.72691342       0.02509473       0.00000000
Si      -2.70686043       0.00716760       2.74008965       0.00000000
