10
Lattice="16.28999089631971 0.0 0.0 0.0 16.28999089631971 0.0 0.0 0.0 34.376317263855086" Properties=species:S:1:pos:R:3:initial_magmoms:R:1 pbc="T T T"
Si      -1.13689539      -1.62074097      -1.30269127       0.00000000
Si       1.63838304       1.23070789      -1.31699183       0.00000000
Si       1.46567646      -1.25281503       1.52778752       0.00000000
Si      -1.95005961       1.24751081       1.03184012       0.00000000
Si      -0.37926378      -0.77616963       3.44894346       0.00000000
Si      -2.32072227      -0.10852398      -2.72044014       0.00000000
Si       3.56117319       0.30405285       1.29973491       0.00000000
Si       0.39936564       2.60322901      -2.74580988       0.00000000
Si       2.99483505       2.39250320       0.13320830       0.00000000
Si      -3.61598904       1.15287588      -0.99629498       0.00000000
