10
Lattice="16.28999089631971 0.0 0.0 0.0 16.28999089631971 0.0 0.0 0.0 34.376317263855086" Properties=species:S:1:pos:R:3:initial_magmoms:R:1 pbc="T T T"
Si       1.04119164      -1.23740469       1.69176265       0.00000000
Si      -0.00509877       2.30340600       0.56153746       0.00000000
Si      -2.08852461      -1.16445807      -0.19350440       0.00000000
Si       1.28402667      -0.29271501      -2.00771556       0.00000000
Si       2.87932266      -2.02005774       0.48893463       0.00000000
Si      -1.52109504      -2.50608618      -2.04171375       0.00000000
Si       2.08067283      -2.51219493      -1.62813205       0.00000000
Si      -0.22232592      -0.64853748      -3.74440807       0.00000000
Si      -3.78393894       0.39024324      -0.45359576       0.00000000
Si      -0.39105774      -3.02386383       2.34133790       0.00000000
