10
Lattice="16.28999089631971 0.0 0.0 0.0 16.28999089631971 0.0 0.0 0.0 34.376317263855086" Properties=species:S:1:pos:R:3:initial_magmoms:R:1 pbc="T T T"
Si      -1.13730264       0.45774900       2.01294076       0.00000000
Si       0.00509877      -2.30340600      -0.56153746       0.00000000
Si      -1.18092726       1.26635202      -1.63926998       0.00000000
Si       2.28866355       0.69766812       0.43104488       0.00000000
Si      -0.89725320       2.81560500       1.93205324       0.00000000
Si       0.84825288       1.36687453      -3.23161626       0.00000000
Si      -1.49457492       3.33909881      -0.34641034       0.00000000
Si      -0.19932444      -0.99220761       3.66603003       0.00000000
Si       1.04629041      -3.54081069       1.13022519       0.00000000
Si       1.28912544      -2.59612101      -2.56925301       0.00000000
