10
Lattice="16.28999089631971 0.0 0.0 0.0 16.28999089631971 0.0 0.0 0.0 34.376317263855086" Properties=species:S:1:pos:R:3:initial_magmoms:R:1 pbc="T T T"
Si       1.34897720       1.33361236       1.37240648       0.00000000
Si       1.35215864      -1.35936478      -1.35951535       0.00000000
Si      -1.36135530       1.35419966      -1.35889658       0.00000000
Si      -1.37681451      -1.35420085       1.37295650       0.00000000
Si      -0.08936694       2.55594391       2.79163353       0.00000000
Si       2.71059803      -2.71518148       0.00127192       0.00000000
Si       2.71274831       2.71400578       0.00178757       0.00000000
Si       2.71159172      -0.00178526      -2.71648686       0.00000000
Si      -0.00327033       2.71376143      -2.71658999       0.00000000
Si      -0.00299816      -2.71624033      -2.71641811       0.00000000
