10
Lattice="16.28999089631971 0.0 0.0 0.0 16.28999089631971 0.0 0.0 0.0 34.376317263855086" Properties=species:S:1:pos:R:3:initial_magmoms:R:1 pbc="T T T"
Si      -1.35645201      -1.16179531      -1.45020013       0.00000000
Si      -1.38263004       1.36334268       1.30901652       0.00000000
Si       0.56633814      -2.08845035       1.16652660       0.00000000
Si       1.40038614       1.41519375      -1.44855007       0.00000000
Si       0.63552177       2.53804716       1.92799683       0.00000000
Si       2.03886359       0.74300319       2.59957294       0.00000000
Si      -2.52376083       2.77884594      -0.20381730       0.00000000
Si       1.18374543      -1.31959493       3.33158265       0.00000000
Si       0.11293857      -2.49495101      -2.86722710       0.00000000
Si      -2.99483505      -2.39250320      -0.13320830       0.00000000
