10
Lattice="16.28999089631971 0.0 0.0 0.0 16.28999089631971 0.0 0.0 0.0 34.376317263855086" Properties=species:S:1:pos:R:3:initial_magmoms:R:1 pbc="T T T"
Si      -1.35694484       1.35707103       1.35731527       0.00000000
Si       1.35716714      -1.35749457       1.35731527       0.00000000
Si      -1.35832897      -1.35703845      -1.35683400       0.00000000
Si       1.35835631       1.35839052      -1.35721214       0.00000000
Si      -0.00308696       2.71347417       2.71483680       0.00000000
Si      -2.71599165       0.00094482      -2.71273984       0.00000000
Si      -0.00127714      -2.71500543       2.71428678       0.00000000
Si      -2.71483506      -2.71489140      -0.00017188       0.00000000
Si      -2.71522602      -0.00146610       2.71469929       0.00000000
Si       2.71471058       2.71534752       0.00013751       0.00000000
