10
Lattice="16.28999089631971 0.0 0.0 0.0 16.28999089631971 0.0 0.0 0.0 34.376317263855086" Properties=species:S:1:pos:R:3:initial_magmoms:R:1 pbc="T T T"
Si       0.92664036       1.49622673      -1.54892897       0.00000000
Si      -1.09548621       1.68637990       1.22819775       0.00000000
Si      -1.83554091      -1.04882970      -1.06171315       0.00000000
Si       1.32753726      -1.37609842       1.47862936       0.00000000
Si      -1.60590078       0.38851487       3.11116158       0.00000000
Si      -0.10248039      -1.42311136       3.36314013       0.00000000
Si      -2.83348260       0.74411743      -2.44006674       0.00000000
Si       3.12710985       2.09403715      -1.01915525       0.00000000
Si       0.48477411       3.44457589       1.81527682       0.00000000
Si      -1.06321572      -2.74594081      -2.60259806       0.00000000
