10
Lattice="16.28999089631971 0.0 0.0 0.0 16.28999089631971 0.0 0.0 0.0 34.376317263855086" Properties=species:S:1:pos:R:3:initial_magmoms:R:1 pbc="T T T"
Si      -1.34436483      -1.34522820      -1.37085611       0.00000000
Si       1.35415512       1.34439741      -1.36228265       0.00000000
Si      -1.35506736       1.35578412       1.35494330       0.00000000
Si       1.35766268      -1.35798327       1.35590584       0.00000000
Si      -2.71358820      -0.00138465       2.71318673       0.00000000
Si       0.00091224       2.71419093       2.71298047       0.00000000
Si      -2.71386513       2.71428867      -0.00735654       0.00000000
Si       0.00115659      -2.71583622       2.71256796       0.00000000
Si       2.71599165      -0.00094482       2.71273984       0.00000000
Si       2.71424047      -2.71469592      -0.00580960       0.00000000
