10
Lattice="16.28999089631971 0.0 0.0 0.0 16.28999089631971 0.0 0.0 0.0 34.376317263855086" Properties=species:S:1:pos:R:3:initial_magmoms:R:1 pbc="T T T"
Si      -1.35708732      -1.35736425      -1.35655899       0.00000000
Si       1.35650609       1.35785295      -1.35666212       0.00000000
Si       1.35753111      -1.35757602       1.35762466       0.00000000
Si      -1.35785295       1.35762489       1.35748715       0.00000000
Si       2.71355792      -0.00011403       2.71445866       0.00000000
Si      -0.00039096       2.71342530       2.71487117       0.00000000
Si      -0.00115659       2.71583622      -2.71256796       0.00000000
Si      -2.71474479       2.71445157       0.00061877       0.00000000
Si       2.71483506       2.71489140       0.00017188       0.00000000
Si       2.71492791      -2.71483601       0.00034376       0.00000000
