10
Lattice="16.28999089631971 0.0 0.0 0.0 16.28999089631971 0.0 0.0 0.0 34.376317263855086" Properties=species:S:1:pos:R:3:initial_magmoms:R:1 pbc="T T T"
Si      -0.81899604      -0.57980997       2.11187586       0.00000000
Si       1.34855136       1.92301821       0.24737212       0.00000000
Si       1.22696280      -1.99905993      -0.41035033       0.00000000
Si      -1.38088701       0.87464268      -1.73242985       0.00000000
Si       2.67481800      -1.75058856       1.45683476       0.00000000
Si       1.17577962      -1.21687929       3.26661137       0.00000000
Si       3.31327197       1.37064060      -0.90313511       0.00000000
Si       0.15304455       3.64757535      -0.79921545       0.00000000
Si      -2.36019294      -2.39958216       1.73572998       0.00000000
Si      -2.07361926      -0.73806732      -3.24746375       0.00000000
