10
Lattice="16.28999089631971 0.0 0.0 0.0 16.28999089631971 0.0 0.0 0.0 34.376317263855086" Properties=species:S:1:pos:R:3:initial_magmoms:R:1 pbc="T T T"
Si      -1.99477566       0.63706932      -1.15473552       0.00000000
Si       1.49903838      -0.53370927      -1.80977661       0.00000000
Si      -0.51841296      -2.33245107       0.37521771       0.00000000
Si      -0.46237536       0.29968713       2.46272075       0.00000000
Si       2.01390012       1.21417515       0.96796888       0.00000000
Si      -0.14066415      -2.09279259       2.64629038       0.00000000
Si       3.12265195      -0.87786810       1.10403042       0.00000000
Si      -2.60988606       1.22484510       2.23954957       0.00000000
Si      -2.77783596       2.38571937       0.18494469       0.00000000
Si      -1.17577962       1.21687929      -3.26661137       0.00000000
