10
Lattice="16.28999089631971 0.0 0.0 0.0 16.28999089631971 0.0 0.0 0.0 34.376317263855086" Properties=species:S:1:pos:R:3:initial_magmoms:R:1 pbc="T T T"
Si      -1.63576035       0.25770780      -1.63504169       0.00000000
Si       0.79377912      -2.20771854       0.08081877       0.00000000
Si       1.49753970       1.81208331      -0.12289540       0.00000000
Si      -1.12616028       0.39278448       2.04360445       0.00000000
Si      -3.16662939      -1.05397929      -0.34101326       0.00000000
Si      -1.40911758       2.68881111       1.81115166       0.00000000
Si       1.32221043      -1.94048109       2.64494970       0.00000000
Si       2.90642922      -1.87833474      -1.11389643       0.00000000
Si       0.35447040       3.71397339       0.65999128       0.00000000
Si      -3.09772269      -0.87413769       2.04267629       0.00000000
