10
Lattice="16.28999089631971 0.0 0.0 0.0 16.28999089631971 0.0 0.0 0.0 34.376317263855086" Properties=species:S:1:pos:R:3:initial_magmoms:R:1 pbc="T T T"
Si      -1.06898238       0.83900016      -1.88506079       0.00000000
Si       1.37938833      -1.49426541      -1.28371553       0.00000000
Si      -1.21836168      -1.40954112       1.80152629       0.00000000
Si       0.74777616       1.98700533       1.70565069       0.00000000
Si      -0.37592433       0.42018426       3.15549128       0.00000000
Si      -2.51260218      -2.26593900      -0.35294185       0.00000000
Si      -3.04054479      -0.42792201      -1.88598895       0.00000000
Si       3.38167368      -0.26292060      -1.35514956       0.00000000
Si       1.10245833      -3.53015703      -0.16431889       0.00000000
Si       0.53522424      -3.22478469       2.08245525       0.00000000
