10
Lattice="16.28999089631971 0.0 0.0 0.0 16.28999089631971 0.0 0.0 0.0 34.376317263855086" Properties=species:S:1:pos:R:3:initial_magmoms:R:1 pbc="T T T"
Si      -1.34825814      -1.35759231       1.36185295       0.00000000
Si       1.35692442      -1.35674523      -1.35858719       0.00000000
Si      -1.35856971       1.35889551      -1.35838094       0.00000000
Si       1.35436689       1.36021500       1.36216233       0.00000000
Si       2.61270423      -0.03420900       2.76966705       0.00000000
Si      -2.77666308      -0.00703728       2.63209295       0.00000000
Si      -0.06612111       2.63186127       2.78269568       0.00000000
Si      -2.71676475      -2.71103067      -0.00103129       0.00000000
Si      -0.00053757      -2.71254564      -2.71597122       0.00000000
Si       2.71844262      -2.71202436      -0.00302512       0.00000000
