10
Lattice="16.28999089631971 0.0 0.0 0.0 16.28999089631971 0.0 0.0 0.0 34.376317263855086" Properties=species:S:1:pos:R:3:initial_magmoms:R:1 pbc="T T T"
Si      -0.54913590      -1.33450938      -1.84174660       0.00000000
Si      -1.71186723       0.95969277       1.32067009       0.00000000
Si       1.43757621      -1.16598933       1.61111576       0.00000000
Si       0.81893088       1.76355540      -1.56467333       0.00000000
Si      -1.68153525       0.42031458      -2.99672276       0.00000000
Si       1.57830552      -1.60076943      -2.89472817       0.00000000
Si       2.98995377       0.64148391       2.06636159       0.00000000
Si       2.45636910       0.59697963      -2.72831232       0.00000000
Si      -3.00322440      -0.92488104       2.13886128       0.00000000
Si      -2.87037945       2.55164931      -0.00807844       0.00000000
