10
Lattice="16.28999089631971 0.0 0.0 0.0 16.28999089631971 0.0 0.0 0.0 34.376317263855086" Properties=species:S:1:pos:R:3:initial_magmoms:R:1 pbc="T T T"
Si       2.17382298       0.91978227      -0.39567163       0.00000000
Si       0.27867303      -2.22944940       0.83936701       0.00000000
Si      -1.54828305       0.29177019      -1.85704407       0.00000000
Si      -0.61856388       1.45186254       1.97794565       0.00000000
Si      -1.53588636       3.19223727       0.69945532       0.00000000
Si      -2.69135235       2.19366027      -1.07415739       0.00000000
Si       1.57253627       3.10778991      -1.35796842       0.00000000
Si       3.07917557      -0.43075647      -2.12469823       0.00000000
Si      -3.04582275      -1.52031312      -1.73414867       0.00000000
Si       1.21718133      -3.52940769      -0.89320035       0.00000000
