10
Lattice="16.28999089631971 0.0 0.0 0.0 16.28999089631971 0.0 0.0 0.0 34.376317263855086" Properties=species:S:1:pos:R:3:initial_magmoms:R:1 pbc="T T T"
Si       1.35669636      -1.35710361       1.35700588       0.00000000
Si       1.35723393       1.35654975      -1.35789967       0.00000000
Si      -1.35772263       1.35827649       1.35683400       0.00000000
Si      -1.35799956      -1.35793440      -1.35831218       0.00000000
Si      -0.00066789       2.71360449       2.71339299       0.00000000
Si       2.71355562      -0.00050499       2.71394301       0.00000000
Si       2.71461447      -2.71438641      -0.00013751       0.00000000
Si      -2.71490769      -2.71480995      -0.00072190       0.00000000
Si      -0.00102627      -2.71534752       2.71452741       0.00000000
Si       2.71490769      -0.00042354      -2.71507743       0.00000000
