10
Lattice="16.28999089631971 0.0 0.0 0.0 16.28999089631971 0.0 0.0 0.0 34.376317263855086" Properties=species:S:1:pos:R:3:initial_magmoms:R:1 pbc="T T T"
Si       1.35724159       1.35800544      -1.35697151       0.00000000
Si       1.35786844      -1.35744570       1.35783091       0.00000000
Si      -1.35796698       1.35776467       1.35779654       0.00000000
Si      -1.35755973      -1.35889551      -1.35731527       0.00000000
Si       2.71302524      -0.00057015       2.71473367       0.00000000
Si      -0.00048870       2.71299429       2.71535244       0.00000000
Si      -2.71546155      -0.00184077       2.71397739       0.00000000
Si       2.71505823      -2.71505430       0.00030939       0.00000000
Si      -2.71479366      -2.71544526       0.00058440       0.00000000
Si       2.71499307       2.71529606       0.00037814       0.00000000
