10
Lattice="16.28999089631971 0.0 0.0 0.0 16.28999089631971 0.0 0.0 0.0 34.376317263855086" Properties=species:S:1:pos:R:3:initial_magmoms:R:1 pbc="T T T"
Si       0.85511816       2.06259812      -0.73200971       0.00000000
Si      -0.61740729      -0.76885542      -2.16505605       0.00000000
Si      -1.87185132       0.34373433       1.46157870       0.00000000
Si       1.84644122      -1.13795424       1.06827903       0.00000000
Si       2.23683596       2.75617745       1.12726883       0.00000000
Si      -1.18374543       1.31959493      -3.33158265       0.00000000
Si      -0.94503177       1.19133724       3.46276275       0.00000000
Si      -3.14517546       2.08999790       0.34469153       0.00000000
Si       1.83843468      -3.35486034       0.33355359       0.00000000
Si       1.37439286      -1.55830140      -3.31831338       0.00000000
