10
Lattice="16.28999089631971 0.0 0.0 0.0 16.28999089631971 0.0 0.0 0.0 34.376317263855086" Properties=species:S:1:pos:R:3:initial_magmoms:R:1 pbc="T T T"
Si      -0.93850830       1.29995829       1.73256736       0.00000000
Si       2.17577222       0.92030355      -0.22495875       0.00000000
Si      -1.35657486       0.13075983      -1.95484475       0.00000000
Si      -0.26274630      -2.26188279       0.85277378       0.00000000
Si       0.95719877       0.35243415       2.82669740       0.00000000
Si      -2.94079365       0.06861348       1.80400139       0.00000000
Si       1.67812901      -2.02859370       2.34491304       0.00000000
Si      -3.46922496      -0.19862397      -0.76012955       0.00000000
Si       2.84213096       1.47400065       1.98774290       0.00000000
Si       3.28416011      -0.30167451      -1.90829919       0.00000000
