10
Lattice="16.28999089631971 0.0 0.0 0.0 16.28999089631971 0.0 0.0 0.0 34.376317263855086" Properties=species:S:1:pos:R:3:initial_magmoms:R:1 pbc="T T T"
Si       1.05832872       1.50076512      -1.42252172       0.00000000
Si      -1.27400832       1.38443823       1.36365427       0.00000000
Si       1.45438749      -1.35738054       1.34419038       0.00000000
Si      -1.81408698      -0.80615952      -1.44445382       0.00000000
Si       1.36280511      -0.04763196      -3.10902479       0.00000000
Si      -2.58895015      -2.64238461      -0.06898987       0.00000000
Si      -2.61836826       0.00501732       2.72840170       0.00000000
Si      -2.62428805       2.80181484      -0.15651202       0.00000000
Si       2.72003904       2.71770957      -0.19921775       0.00000000
Si       0.09620874      -2.71578735       2.72967362       0.00000000
