10
Lattice="16.28999089631971 0.0 0.0 0.0 16.28999089631971 0.0 0.0 0.0 34.376317263855086" Properties=species:S:1:pos:R:3:initial_magmoms:R:1 pbc="T T T"
Si       1.35385789       1.35640314       1.35752153       0.00000000
Si       1.35694484      -1.35707103      -1.35731527       0.00000000
Si      -1.35813456       1.35806472      -1.35707464       0.00000000
Si      -1.35828117      -1.35853713       1.35738402       0.00000000
Si       0.00323703      -2.71381626       2.71294610       0.00000000
Si      -0.00138413      -2.71410948      -2.71414927       0.00000000
Si       2.71411198      -2.71456560       0.00000000       0.00000000
Si      -2.71411416      -0.00034209      -2.71511181       0.00000000
Si       2.71429117       2.71523349       0.00024063       0.00000000
Si      -0.00148707       2.71544526      -2.71435553       0.00000000
