10
Lattice="16.28999089631971 0.0 0.0 0.0 16.28999089631971 0.0 0.0 0.0 34.376317263855086" Properties=species:S:1:pos:R:3:initial_magmoms:R:1 pbc="T T T"
Si       1.35653346       1.35620766       1.35755590       0.00000000
Si       1.35736425      -1.35695700      -1.35741840       0.00000000
Si      -1.35718832       1.35760860      -1.35745277       0.00000000
Si      -1.36043329      -1.35883035       1.35728089       0.00000000
Si       0.00184077       2.71464705      -2.71370238       0.00000000
Si      -2.71186865       0.00259011       2.71655561       0.00000000
Si       0.00100998      -2.71391400      -2.71476804       0.00000000
Si       2.71474479       0.00117288      -2.71428678       0.00000000
Si      -2.71429117      -2.71523349      -0.00024063       0.00000000
Si      -2.71437810       2.71521720       0.00006875       0.00000000
