10
Lattice="16.28999089631971 0.0 0.0 0.0 16.28999089631971 0.0 0.0 0.0 34.376317263855086" Properties=species:S:1:pos:R:3:initial_magmoms:R:1 pbc="T T T"
Si      -1.36077538       1.35407367      -1.36346863       0.00000000
Si       1.37521809       1.34776944       1.35765903       0.00000000
Si       1.35772263      -1.36146933      -1.36350301       0.00000000
Si      -1.38353576      -1.36925595       1.36199045       0.00000000
Si       2.55207285      -0.13501152       2.85003893       0.00000000
Si       0.06211377       2.58383835       2.83439770       0.00000000
Si      -2.71139624      -2.71614573      -0.00804406       0.00000000
Si      -2.71221074       2.71549413      -0.00419391       0.00000000
Si       2.71689507       2.71280628      -0.00323138       0.00000000
Si       2.71510317      -2.71534752      -0.00577522       0.00000000
