10
Lattice="16.28999089631971 0.0 0.0 0.0 16.28999089631971 0.0 0.0 0.0 34.376317263855086" Properties=species:S:1:pos:R:3:initial_magmoms:R:1 pbc="T T T"
Si      -1.74724001      -0.88672986      -1.32070447       0.00000000
Si       1.13200839       1.73543886      -1.25095488       0.00000000
Si      -1.15681317       1.56162456       1.47292289       0.00000000
Si       1.77430680      -1.94515632       0.21437083       0.00000000
Si      -0.31364114      -2.21765544      -2.72336213       0.00000000
Si       2.44511271       0.49936995      -2.72769355       0.00000000
Si       3.28406400       0.89423955       1.48258264       0.00000000
Si      -0.59689981       0.38981970       3.65795159       0.00000000
Si      -3.32018612      -1.87066215       0.19051366       0.00000000
Si      -1.71812978      -3.13463583       1.59217440       0.00000000
