10
Lattice="16.28999089631971 0.0 0.0 0.0 16.28999089631971 0.0 0.0 0.0 34.376317263855086" Properties=species:S:1:pos:R:3:initial_magmoms:R:1 pbc="T T T"
Si      -1.13694982      -2.07756144      -0.15902493       0.00000000
Si      -1.08360007       1.87040151       0.99650124       0.00000000
Si       2.10260080       0.10764432       1.15480427       0.00000000
Si      -0.55991336       1.17180486      -2.18502870       0.00000000
Si       0.48749943       3.37243725       0.15775301       0.00000000
Si      -3.10167043      -1.52518383       0.99148230       0.00000000
Si       2.57435920       2.46430233       0.64390316       0.00000000
Si       0.59689981      -0.38981970      -3.65795159       0.00000000
Si      -0.34831441      -3.36548142       1.64339514       0.00000000
Si       1.62532009      -0.37424646       3.43673986       0.00000000
