10
Lattice="16.28999089631971 0.0 0.0 0.0 16.28999089631971 0.0 0.0 0.0 34.376317263855086" Properties=species:S:1:pos:R:3:initial_magmoms:R:1 pbc="T T T"
Si      -1.68644898      -0.90564255       1.51519345       0.00000000
Si       1.79140804      -1.71815517       0.06703386       0.00000000
Si       0.98120697       1.88981919       1.35497566       0.00000000
Si      -1.54630611      -0.65593314      -1.94504749       0.00000000
Si      -0.37554381      -2.27858004       2.88214440       0.00000000
Si       2.33148670       0.47244258       2.87514194       0.00000000
Si      -3.28296672      -2.08731915      -0.02282589       0.00000000
Si       1.01654487      -3.55438026       1.44249781       0.00000000
Si       2.80829500      -1.85965011      -2.17320324       0.00000000
Si       3.60549502      -0.91199565       1.51148768       0.00000000
