10
Lattice="16.28999089631971 0.0 0.0 0.0 16.28999089631971 0.0 0.0 0.0 34.376317263855086" Properties=species:S:1:pos:R:3:initial_magmoms:R:1 pbc="T T T"
Si      -1.35515679      -1.35687555      -1.35690275       0.00000000
Si      -1.35215864       1.35936478       1.35951535       0.00000000
Si       1.35943308       1.35757951      -1.35697151       0.00000000
Si       1.35843939      -1.35581670       1.36078728       0.00000000
Si      -0.00318144       2.69297713       2.73192184       0.00000000
Si      -2.71351394       2.71356444       0.00061877       0.00000000
Si      -2.71302524       0.00057015      -2.71473367       0.00000000
Si       0.00203299      -2.71448415      -2.71442428       0.00000000
Si       2.71536381       2.71423558      -0.00030939       0.00000000
Si      -2.71426328      -2.71538010      -0.00020626       0.00000000
