10
Lattice="16.28999089631971 0.0 0.0 0.0 16.28999089631971 0.0 0.0 0.0 34.376317263855086" Properties=species:S:1:pos:R:3:initial_magmoms:R:1 pbc="T T T"
Si       1.02879495       1.77731949       1.22771648       0.00000000
Si       1.46758239      -1.18504863      -1.48653592       0.00000000
Si      -1.24319253       1.50535468      -1.48340767       0.00000000
Si      -1.52378452      -1.56540384       1.39763871       0.00000000
Si       2.67061518      -2.55401136      -0.01478182       0.00000000
Si       2.41443864       0.49697599       2.82903499       0.00000000
Si       0.11842830      -2.54343915      -2.85454223       0.00000000
Si      -2.68153667       2.72768624      -0.06418062       0.00000000
Si      -2.59216973       0.17174233      -2.85581415       0.00000000
Si      -0.92333349       3.51747431       1.31166349       0.00000000
