10
Lattice="16.28999089631971 0.0 0.0 0.0 16.28999089631971 0.0 0.0 0.0 34.376317263855086" Properties=species:S:1:pos:R:3:initial_magmoms:R:1 pbc="T T T"
Si       0.52046550      -1.72162494       1.43521205       0.00000000
Si      -1.92063498       0.83755493       1.34892744       0.00000000
Si      -1.63368663      -0.66455055      -1.86608505       0.00000000
Si       2.59944417       0.64847232      -0.82960413       0.00000000
Si      -0.00245979       0.08487090      -3.48651680       0.00000000
Si       1.97972370      -0.49940253       2.83403128       0.00000000
Si       1.51031106      -3.19168341      -0.06442125       0.00000000
Si      -2.77899974       2.35241676      -0.46579936       0.00000000
Si      -0.81383211       2.21458870       2.84915687       0.00000000
Si       0.16047279       3.55039640      -1.09918336       0.00000000
