10
Lattice="16.28999089631971 0.0 0.0 0.0 16.28999089631971 0.0 0.0 0.0 34.71893929493243" Properties=species:S:1:pos:R:3:initial_magmoms:R:1 pbc="T T T"
Si      -1.33822042      -1.33344238       1.37255501       0.00000000
Si       1.37760832       1.37722176       1.36682638       0.00000000
Si       1.42456913      -1.38549382      -1.32813210       0.00000000
Si      -1.45457989       1.32300864      -1.40597201       0.00000000
Si       2.32113978       0.47589606      -2.49366109       0.00000000
Si       0.34686509       2.02365783      -2.78470842       0.00000000
Si      -2.69398825      -2.69139212      -0.01960232       0.00000000
Si       2.74099824      -2.67966332       0.05832785       0.00000000
Si       0.01785005      -2.69519729       2.73072596       0.00000000
Si      -2.69732770       0.02010186       2.72881641       0.00000000
