10
Lattice="16.28999089631971 0.0 0.0 0.0 16.28999089631971 0.0 0.0 0.0 34.71893929493243" Properties=species:S:1:pos:R:3:initial_magmoms:R:1 pbc="T T T"
Si      -1.35692442      -1.33965702      -1.38299500       0.00000000
Si       1.35733167       1.37902995      -1.37719693       0.00000000
Si      -1.35759231       1.30425885       1.46350827       0.00000000
Si       1.34405532      -1.38911346       1.54113986       0.00000000
Si      -2.70980078      -2.69134095       0.00486065       0.00000000
Si       2.49122970       0.15446178       2.89247117       0.00000000
Si       2.71801908      -2.68779624      -0.00065966       0.00000000
Si      -0.00017919      -2.69652442      -2.74147842       0.00000000
Si      -2.71895413       2.73580776       0.01614432       0.00000000
Si      -2.71496959       0.01917333      -2.74064516       0.00000000
