10
Lattice="16.28999089631971 0.0 0.0 0.0 16.28999089631971 0.0 0.0 0.0 34.71893929493243" Properties=species:S:1:pos:R:3:initial_magmoms:R:1 pbc="T T T"
Si      -1.54464875      -1.44754569      -0.95070925       0.00000000
Si      -0.73404206       1.87817184       1.23328685       0.00000000
Si       1.01043612       1.26591219      -1.72393518       0.00000000
Si       1.31725827      -1.36028016       1.42250518       0.00000000
Si       1.53165096       2.64844449       1.56745683       0.00000000
Si       2.64453489       2.38614291      -0.49696717       0.00000000
Si      -1.44754569      -0.85983507      -3.28069856       0.00000000
Si      -1.79692872       3.24640152      -0.46773381       0.00000000
Si       3.50373465      -1.32556617       0.41482212       0.00000000
Si      -0.63467795       2.77821063      -2.47858646       0.00000000
