10
Lattice="16.28999089631971 0.0 0.0 0.0 16.28999089631971 0.0 0.0 0.0 34.71893929493243" Properties=species:S:1:pos:R:3:initial_magmoms:R:1 pbc="T T T"
Si      -1.35716877      -1.35773077       1.35685162       0.00000000
Si       1.35778779      -1.35753204      -1.35737241       0.00000000
Si       1.35830907       1.35739683       1.35709466       0.00000000
Si      -1.35752715       1.35772263      -1.35799735       0.00000000
Si       2.71381626      -0.00122175      -2.71530032       0.00000000
Si       2.71769328      -0.00475668       2.71144652       0.00000000
Si      -2.71391400      -0.00086337       2.71533504       0.00000000
Si      -2.71461447      -2.71511694      -0.00031247       0.00000000
Si       2.71497285      -2.71490534      -0.00059022       0.00000000
Si       0.00045612      -2.71569255      -2.71443235       0.00000000
