10
Lattice="16.28999089631971 0.0 0.0 0.0 16.28999089631971 0.0 0.0 0.0 34.71893929493243" Properties=species:S:1:pos:R:3:initial_magmoms:R:1 pbc="T T T"
Si       1.35602847       1.35631029      -1.35792791       0.00000000
Si       1.35718506      -1.35737330       1.35678219       0.00000000
Si      -1.35733167      -1.35816051      -1.35705994       0.00000000
Si      -1.35778779       1.35753204       1.35737241       0.00000000
Si       0.00228060      -2.71227101      -2.71026607       0.00000000
Si       0.00070047      -2.71355792       2.71391156       0.00000000
Si       2.71402803       0.00024598       2.71387684       0.00000000
Si      -2.71495656      -0.00019874       2.71422403       0.00000000
Si       2.71464705      -2.71468193       0.00010416       0.00000000
Si       0.00052128       2.71492887       2.71446707       0.00000000
