10
Lattice="16.28999089631971 0.0 0.0 0.0 16.28999089631971 0.0 0.0 0.0 34.71893929493243" Properties=species:S:1:pos:R:3:initial_magmoms:R:1 pbc="T T T"
Si       1.44246321       0.80936946       1.73869073       0.00000000
Si      -0.37708092      -2.30094444       0.70937776       0.00000000
Si       1.52769249      -0.37507548      -1.95158739       0.00000000
Si      -1.98612567       1.58241956       0.06103593       0.00000000
Si      -2.84718249      -2.30451195       0.56442611       0.00000000
Si       1.46722401      -0.92942418       3.28545506       0.00000000
Si       1.03956264      -2.67173742      -2.63673132       0.00000000
Si       1.00426221      -3.78452361      -0.59282622       0.00000000
Si       3.72609315       1.02986928       0.97674847       0.00000000
Si       3.83723982      -0.21733941      -1.07934299       0.00000000
