10
Lattice="16.28999089631971 0.0 0.0 0.0 16.28999089631971 0.0 0.0 0.0 34.71893929493243" Properties=species:S:1:pos:R:3:initial_magmoms:R:1 pbc="T T T"
Si       1.04775651      -1.40745600      -1.66925282       0.00000000
Si      -1.43943327       1.09014309      -1.65012267       0.00000000
Si      -1.38924378      -1.92717216       0.64632814       0.00000000
Si       0.36484713       0.91409706       2.36425693       0.00000000
Si      -3.30538761      -0.57213738       1.02049435       0.00000000
Si      -3.48617403       1.29953475      -0.40155948       0.00000000
Si      -0.70382574      -2.41973289       2.90524774       0.00000000
Si      -0.02065572       2.61421920      -2.97117905       0.00000000
Si       2.62339047       0.42375177       2.97749790       0.00000000
Si      -1.08724347      -0.26471250       3.84859657       0.00000000
