10
Lattice="16.28999089631971 0.0 0.0 0.0 16.28999089631971 0.0 0.0 0.0 34.71893929493243" Properties=species:S:1:pos:R:3:initial_magmoms:R:1 pbc="T T T"
Si      -1.43496981       1.33384149      -1.22415229       0.00000000
Si      -1.36205577      -1.35208629       1.35968469       0.00000000
Si       1.35601218       1.36414089       1.36645489       0.00000000
Si       1.23904998      -1.30955310      -1.52681134       0.00000000
Si      -0.42243228      -2.41277706      -2.85451783       0.00000000
Si       2.70027927      -2.68516215      -0.01836633       0.00000000
Si       2.70313002       2.69355315       0.01243980       0.00000000
Si      -0.00518022      -2.71085148       2.71868889       0.00000000
Si       2.71013472       0.00491958       2.71945271       0.00000000
Si       2.32557669       0.24392646      -3.04988141       0.00000000
