10
Lattice="16.28999089631971 0.0 0.0 0.0 16.28999089631971 0.0 0.0 0.0 34.71893929493243" Properties=species:S:1:pos:R:3:initial_magmoms:R:1 pbc="T T T"
Si       1.34711784       1.32941226      -1.35401509       0.00000000
Si       1.35412254      -1.35922131       1.35299782       0.00000000
Si      -1.35961227       1.35411049       1.35320613       0.00000000
Si      -1.35601218      -1.36414089      -1.36645489       0.00000000
Si      -0.15864831       2.52491320      -2.65553163       0.00000000
Si       2.50970256      -0.11688075      -2.81974884       0.00000000
Si      -2.79098199      -0.03029940      -2.59060718       0.00000000
Si      -0.00228060       2.71227101       2.71026607       0.00000000
Si       2.71236645      -0.00241092       2.71037023       0.00000000
Si      -0.00177561      -2.71754667       2.70967585       0.00000000
