10
Lattice="16.28999089631971 0.0 0.0 0.0 16.28999089631971 0.0 0.0 0.0 34.71893929493243" Properties=species:S:1:pos:R:3:initial_magmoms:R:1 pbc="T T T"
Si      -1.35703845       1.35682010       1.35709466       0.00000000
Si       1.35803214       1.35624448      -1.35702522       0.00000000
Si       1.35755973      -1.35729909       1.35699050       0.00000000
Si      -1.35773892      -1.35710361      -1.35761544       0.00000000
Si       0.00022806      -2.71303434       2.71373797       0.00000000
Si       2.71764441       0.00213399      -2.71023135       0.00000000
Si      -2.71439618      -0.00184077       2.71370325       0.00000000
Si       0.00040725       2.71420626       2.71425875       0.00000000
Si      -0.00317655       2.71624740      -2.71252281       0.00000000
Si      -2.71486696       2.71472103      -0.00010416       0.00000000
