10
Lattice="16.28999089631971 0.0 0.0 0.0 16.28999089631971 0.0 0.0 0.0 34.71893929493243" Properties=species:S:1:pos:R:3:initial_magmoms:R:1 pbc="T T T"
Si       1.35648459       1.35618462      -1.35712938       0.00000000
Si       1.35575154      -1.35640314       1.35778904       0.00000000
Si      -1.35922131       1.35402480       1.36004577       0.00000000
Si      -1.35850455      -1.35814617      -1.35695578       0.00000000
Si       2.69917155      -0.00529425       2.71141180       0.00000000
Si       2.71332756       2.71380390      -0.00003472       0.00000000
Si      -0.00070047       2.71355792      -2.71391156       0.00000000
Si       2.71394658      -0.00112401      -2.71380741       0.00000000
Si      -2.71565703       2.71335918       0.00031247       0.00000000
Si       2.71376739      -2.71544526       0.00079854       0.00000000
