10
Lattice="16.28999089631971 0.0 0.0 0.0 16.28999089631971 0.0 0.0 0.0 34.71893929493243" Properties=species:S:1:pos:R:3:initial_magmoms:R:1 pbc="T T T"
Si      -1.36764324      -1.34918667      -1.39500776       0.00000000
Si       1.34635221       1.36847403      -1.40021560       0.00000000
Si      -1.43588205       1.35294966       1.38059939       0.00000000
Si       1.48444254      -1.24877511       1.64696324       0.00000000
Si       2.69461035      -2.68560198      -0.01520690       0.00000000
Si       2.68977222       2.71958292      -0.04659284       0.00000000
Si      -2.72106531      -2.70246213       0.00503425       0.00000000
Si       2.70436806       0.00943191      -2.75720610       0.00000000
Si      -2.72808630       2.73385296      -0.03444121       0.00000000
Si      -0.01014867      -2.70630657      -2.75699779       0.00000000
