10
Lattice="16.28999089631971 0.0 0.0 0.0 16.28999089631971 0.0 0.0 0.0 34.71893929493243" Properties=species:S:1:pos:R:3:initial_magmoms:R:1 pbc="T T T"
Si      -1.19723681      -0.37879137      -1.99946483       0.00000000
Si      -1.69191917      -0.25459641       1.67755065       0.00000000
Si       0.76857849       2.26737252      -0.18689215       0.00000000
Si       2.21394132      -0.96013260      -0.14002156       0.00000000
Si       0.07202298       0.39112290       3.14352396       0.00000000
Si       1.66565250       1.96913520      -2.41623121       0.00000000
Si      -1.12314174      -2.73638510      -2.12209219       0.00000000
Si       0.26060742       0.51569253      -3.66163498       0.00000000
Si      -3.43499804       0.35531748      -1.40351391       0.00000000
Si       3.25040886       0.23775255      -1.95318446       0.00000000
