10
Lattice="16.28999089631971 0.0 0.0 0.0 16.28999089631971 0.0 0.0 0.0 34.71893929493243" Properties=species:S:1:pos:R:3:initial_magmoms:R:1 pbc="T T T"
Si      -1.29220425       1.38090330      -1.41504060       0.00000000
Si      -1.70010585      -0.86760540       1.43038638       0.00000000
Si       1.43588205      -1.35294966      -1.38059939       0.00000000
Si       1.17304290       1.63592325       1.41955406       0.00000000
Si      -2.47619403       2.83592791       0.07839541       0.00000000
Si      -2.72302011      -2.66217696       0.09408838       0.00000000
Si       2.75657751       2.66250276      -0.01899127       0.00000000
Si      -2.64779289       0.01264104      -2.78067612       0.00000000
Si       0.06823881      -2.70213633      -2.77560715       0.00000000
Si       0.06726141       2.72595231      -2.77855826       0.00000000
