10
Lattice="16.28999089631971 0.0 0.0 0.0 16.28999089631971 0.0 0.0 0.0 34.71893929493243" Properties=species:S:1:pos:R:3:initial_magmoms:R:1 pbc="T T T"
Si       1.36907676      -1.29586950      -1.40820096       0.00000000
Si      -1.58353461      -1.02657951       1.43854533       0.00000000
Si       1.80801081       1.02693530       1.14582979       0.00000000
Si      -1.32755355       1.43151211      -1.37848154       0.00000000
Si       3.52412973      -0.71198703       1.18277077       0.00000000
Si       2.80982952      -2.54821212      -0.08860278       0.00000000
Si       1.40284593       0.80060367       3.43974611       0.00000000
Si       0.02565675      -2.64697839      -2.76182373       0.00000000
Si      -2.75657751      -2.66250276       0.01899127       0.00000000
Si      -2.70151731       2.73019490       0.16331798       0.00000000
