10
Lattice="16.28999089631971 0.0 0.0 0.0 16.28999089631971 0.0 0.0 0.0 34.71893929493243" Properties=species:S:1:pos:R:3:initial_magmoms:R:1 pbc="T T T"
Si      -0.82282419       1.44370125       1.70369402       0.00000000
Si      -0.94534128       1.09923291      -1.94047732       0.00000000
Si      -0.91452060      -2.24551134       0.17741388       0.00000000
Si       2.47010157       0.00356751       0.14495165       0.00000000
Si       0.50384970       0.31397346       3.57983711       0.00000000
Si       2.84718249       2.30451195      -0.56442611       0.00000000
Si       1.05591780      -3.49122393       0.74260381       0.00000000
Si      -1.15973397      -2.90949174      -2.08542897       0.00000000
Si      -3.21103430       0.32896026      -2.27464730       0.00000000
Si      -2.91038769       0.68040072       2.60458156       0.00000000
