10
Lattice="16.28999089631971 0.0 0.0 0.0 16.28999089631971 0.0 0.0 0.0 34.71893929493243" Properties=species:S:1:pos:R:3:initial_magmoms:R:1 pbc="T T T"
Si       1.35412254      -1.35252938      -1.35494208       0.00000000
Si      -1.35938421       1.36215351      -1.35435186       0.00000000
Si       1.35433431       1.35461124       1.36733675       0.00000000
Si      -1.35666378      -1.34424591       1.38622386       0.00000000
Si      -0.05812272       2.60784981       2.77654456       0.00000000
Si       2.70863604      -2.70669543       0.00409684       0.00000000
Si      -0.00272043      -2.71014866      -2.71203674       0.00000000
Si       2.71218726       0.00532683      -2.71141180       0.00000000
Si      -2.71769328       0.00475668      -2.71144652       0.00000000
Si      -2.71842633      -2.71230848       0.00513841       0.00000000
