10
Lattice="16.28999089631971 0.0 0.0 0.0 16.28999089631971 0.0 0.0 0.0 34.71893929493243" Properties=species:S:1:pos:R:3:initial_magmoms:R:1 pbc="T T T"
Si      -0.40516488      -0.22633163       2.29391632       0.00000000
Si      -1.80801081      -1.02693530      -1.14582979       0.00000000
Si       1.01972142       1.85954585      -1.10458367       0.00000000
Si       1.71611892      -1.73892233       0.03694097       0.00000000
Si       0.78473817       1.84252280       2.18684305       0.00000000
Si       2.28341817       0.42444735      -2.55291975       0.00000000
Si      -0.43893405      -2.32280480      -2.55403076       0.00000000
Si       0.04841388      -2.73156977       2.17809387       0.00000000
Si       3.57933654      -0.87550556      -1.13572658       0.00000000
Si       1.00181871      -3.57514742      -1.23443258       0.00000000
