10
Lattice="16.28999089631971 0.0 0.0 0.0 16.28999089631971 0.0 0.0 0.0 34.71893929493243" Properties=species:S:1:pos:R:3:initial_magmoms:R:1 pbc="T T T"
Si       0.02476080      -1.73879364       1.54676433       0.00000000
Si      -0.71218251       1.49285632       1.70390234       0.00000000
Si      -1.44246321      -0.80936946      -1.73869073       0.00000000
Si       2.28362994       0.22049981      -0.76194227       0.00000000
Si       1.68863769      -0.96914001       3.00426622       0.00000000
Si       1.44622620       1.74733871       2.86598060       0.00000000
Si      -1.81954413      -3.11031390      -1.02931297       0.00000000
Si       2.39477661      -1.02670887      -2.81803372       0.00000000
Si       0.08522928      -1.18444494      -3.69027812       0.00000000
Si      -3.42858888       0.77305009      -1.67765480       0.00000000
