10
Lattice="16.28999089631971 0.0 0.0 0.0 16.28999089631971 0.0 0.0 0.0 34.71893929493243" Properties=species:S:1:pos:R:3:initial_magmoms:R:1 pbc="T T T"
Si      -0.72622449       2.21576580       0.47450401       0.00000000
Si       2.32593507       0.45256878      -0.56036399       0.00000000
Si      -2.15840871      -0.25448238      -1.16207827       0.00000000
Si       0.24241149      -2.71647872       0.13828561       0.00000000
Si      -1.89644922      -0.66484377       2.50839794       0.00000000
Si      -0.15732882      -2.33912020       2.39349029       0.00000000
Si       0.63431631       2.32088517       2.39165714       0.00000000
Si       2.43862929       0.62382555       2.36390974       0.00000000
Si       1.73081250       2.08251360      -2.28707669       0.00000000
Si      -3.38685390      -0.88795161       0.71882132       0.00000000
