10
Lattice="16.28999089631971 0.0 0.0 0.0 16.28999089631971 0.0 0.0 0.0 34.71893929493243" Properties=species:S:1:pos:R:3:initial_magmoms:R:1 pbc="T T T"
Si      -1.32960609      -1.36453185       1.38395324       0.00000000
Si       1.23305526      -1.49245722      -1.37425277       0.00000000
Si       1.38362373       1.35330804       1.38301583       0.00000000
Si      -1.52371773       1.28407554      -1.46043911       0.00000000
Si      -2.68459200      -2.72297124       0.01894266       0.00000000
Si      -2.71109583       2.71428867       0.01055456       0.00000000
Si       2.72572425       2.70091458       0.00835685       0.00000000
Si      -2.69148267      -0.00768888       2.74017993       0.00000000
Si       0.02378340       2.70480789       2.74285329       0.00000000
Si       2.72986191      -2.72225448       0.02100844       0.00000000
