10
Lattice="16.28999089631971 0.0 0.0 0.0 16.28999089631971 0.0 0.0 0.0 34.71893929493243" Properties=species:S:1:pos:R:3:initial_magmoms:R:1 pbc="T T T"
Si      -1.65366306      -1.05026517       1.29135226       0.00000000
Si      -1.36054080      -0.10511937      -1.91715313       0.00000000
Si       1.14637617       1.72147833       1.27867637       0.00000000
Si       1.80431298      -1.69705962      -0.02774740       0.00000000
Si      -0.63431631      -2.32088517      -2.39165714       0.00000000
Si      -0.15685641      -2.28006243       2.68661347       0.00000000
Si       0.56746215       2.84959341      -2.10727415       0.00000000
Si       2.57318469       0.44460297       2.68879035       0.00000000
Si      -0.43539912       1.23738840      -3.58775998       0.00000000
Si       1.69161876      -1.86831639      -2.95202113       0.00000000
