10
Lattice="16.28999089631971 0.0 0.0 0.0 16.28999089631971 0.0 0.0 0.0 34.71893929493243" Properties=species:S:1:pos:R:3:initial_magmoms:R:1 pbc="T T T"
Si      -1.35671265      -1.35806472       1.35709466       0.00000000
Si      -1.35759231       1.35746199      -1.35789319       0.00000000
Si       1.35796698      -1.35824391      -1.35737241       0.00000000
Si       1.35912357       1.35809730       1.35646972       0.00000000
Si      -0.00102627       2.71199178      -2.71418932       0.00000000
Si      -2.71485882       2.71433754       0.00034719       0.00000000
Si       2.71485882      -2.71489140       0.00003472       0.00000000
Si       2.71451673      -0.00133578      -2.71561279       0.00000000
Si       2.71546155       2.71471221      -0.00038191       0.00000000
Si      -2.71502172      -2.71546155       0.00000000       0.00000000
