10
Lattice="16.28999089631971 0.0 0.0 0.0 16.28999089631971 0.0 0.0 0.0 34.71893929493243" Properties=species:S:1:pos:R:3:initial_magmoms:R:1 pbc="T T T"
Si       0.83179998      -1.58374638      -1.63769328       0.00000000
Si      -1.94989671       1.27237932      -1.10413232       0.00000000
Si       1.07619885      -1.25954280       2.02432361       0.00000000
Si       0.96793551       2.05623783       1.36174700       0.00000000
Si       1.90074978       0.07270227      -2.95500001       0.00000000
Si      -2.91151170       2.14718490       1.13225468       0.00000000
Si      -0.74885130       2.84346837      -2.58909691       0.00000000
Si       2.58198129       2.99823966      -0.16494977       0.00000000
Si      -0.89130735      -2.07731709       3.28694798       0.00000000
Si       3.47188770       1.20656772      -1.57870577       0.00000000
