10
Lattice="16.28999089631971 0.0 0.0 0.0 16.28999089631971 0.0 0.0 0.0 34.71893929493243" Properties=species:S:1:pos:R:3:initial_magmoms:R:1 pbc="T T T"
Si      -1.53593523       1.27270512      -1.30744655       0.00000000
Si       2.22860232      -0.25158276      -0.85679446       0.00000000
Si       0.33681204       1.69238439       1.70681873       0.00000000
Si      -1.07838171      -2.11211253       0.52946412       0.00000000
Si       0.80490519      -3.15084438       1.64449820       0.00000000
Si       0.60440787       3.63208356       0.34993238       0.00000000
Si      -3.15771876       1.99288602       0.20227265       0.00000000
Si      -0.45178686       3.29369139      -1.71730385       0.00000000
Si       2.81628036       1.72489923      -1.98540365       0.00000000
Si       3.67420950      -0.91393416       0.91494872       0.00000000
