10
Lattice="16.28999089631971 0.0 0.0 0.0 16.28999089631971 0.0 0.0 0.0 34.71893929493243" Properties=species:S:1:pos:R:3:initial_magmoms:R:1 pbc="T T T"
Si       1.88328690      -1.03873185       1.11503408       0.00000000
Si       1.07838171       2.11211253      -0.52946412       0.00000000
Si      -1.00875825      -1.05691149      -2.04161365       0.00000000
Si      -2.03952429       0.57044322       1.39813247       0.00000000
Si       2.17145700       0.36279459       3.06231631       0.00000000
Si      -3.31565031      -0.59851089      -1.91856966       0.00000000
Si      -0.45755352       3.38481765      -1.83691067       0.00000000
Si       1.27804824      -3.24655790       1.72147013       0.00000000
Si      -3.86667585      -0.42409386       0.31517871       0.00000000
Si      -0.35513829       0.12149082      -3.97594571       0.00000000
