10
Lattice="16.28999089631971 0.0 0.0 0.0 16.28999089631971 0.0 0.0 0.0 34.71893929493243" Properties=species:S:1:pos:R:3:initial_magmoms:R:1 pbc="T T T"
Si      -1.35633798      -1.35661491       1.35685162       0.00000000
Si       1.35705474      -1.35681039      -1.35709466       0.00000000
Si      -1.35751086       1.35744570      -1.35726825       0.00000000
Si       1.35842310       1.35791811       1.35719881       0.00000000
Si      -0.00128691       2.71334385      -2.71443235       0.00000000
Si       2.71440270      -2.71451673       0.00065966       0.00000000
Si       2.71699281      -0.00190593       2.71203674       0.00000000
Si       2.71498914       0.00053757      -2.71425875       0.00000000
Si       2.71516833       2.71469592      -0.00017359       0.00000000
Si      -0.00091224      -2.71197549       2.71800840       0.00000000
