10
Lattice="16.28999089631971 0.0 0.0 0.0 16.28999089631971 0.0 0.0 0.0 34.71893929493243" Properties=species:S:1:pos:R:3:initial_magmoms:R:1 pbc="T T T"
Si       1.68555888      -1.61705943      -0.58050099       0.00000000
Si      -2.13201891      -1.08942633      -0.73232700       0.00000000
Si      -0.39359898       1.60440210      -1.98227895       0.00000000
Si       0.00731421      -0.36890334       2.61142120       0.00000000
Si       0.31741065      -3.04966719       0.63539166       0.00000000
Si       1.50993639       2.67571395      -1.10743063       0.00000000
Si       1.63750338      -2.35465434       2.62117722       0.00000000
Si      -2.65777866       2.44203390      -1.71942171       0.00000000
Si      -1.66589685      -2.90527263      -2.20309152       0.00000000
Si      -2.72917773      -2.99410200       0.66691648       0.00000000
