10
Lattice="16.28999089631971 0.0 0.0 0.0 16.28999089631971 0.0 0.0 0.0 34.71893929493243" Properties=species:S:1:pos:R:3:initial_magmoms:R:1 pbc="T T T"
Si      -1.35834165       1.35754344       1.36448980       0.00000000
Si       1.35883035      -1.35997065       1.36521889       0.00000000
Si       1.36101321       1.36014984      -1.38427613       0.00000000
Si      -1.35532800      -1.36303317      -1.39068872       0.00000000
Si      -2.71585251      -2.71427238       0.00562447       0.00000000
Si       2.71606428      -2.71531494       0.00708267       0.00000000
Si      -2.71326240       2.71932458       0.00715211       0.00000000
Si       2.71678104       2.71809957       0.00788120       0.00000000
Si      -2.71432125       0.00004887       2.72255658       0.00000000
Si       0.00027693       2.71563652       2.72241771       0.00000000
