10
Lattice="16.28999089631971 0.0 0.0 0.0 16.28999089631971 0.0 0.0 0.0 34.71893929493243" Properties=species:S:1:pos:R:3:initial_magmoms:R:1 pbc="T T T"
Si      -0.95262291      -1.23447249       1.68237658       0.00000000
Si      -1.44075276       1.25234262      -1.31959818       0.00000000
Si       0.71430021       1.83622509       1.27137355       0.00000000
Si       1.31069340      -1.45933965      -1.29796827       0.00000000
Si      -0.95340483       0.84357765       3.41252645       0.00000000
Si       2.57751783       2.69964186       0.09870600       0.00000000
Si      -0.07208325       2.61727472      -2.67200578       0.00000000
Si       2.64810240      -0.10401165      -2.67141556       0.00000000
Si      -2.80982952       2.54821212       0.08860278       0.00000000
Si      -2.64608244      -2.71601541       0.37395790       0.00000000
