10
Lattice="16.28999089631971 0.0 0.0 0.0 16.28999089631971 0.0 0.0 0.0 34.71893929493243" Properties=species:S:1:pos:R:3:initial_magmoms:R:1 pbc="T T T"
Si      -1.26597735      -1.84759551      -0.47582333       0.00000000
Si       0.35419347       1.32361137      -1.89930064       0.00000000
Si       1.02086172       0.18683001       2.10126082       0.00000000
Si      -2.48311728       0.01101204       0.63032270       0.00000000
Si       0.31455990       2.46541005       2.18771103       0.00000000
Si      -1.99498743       2.30767398       1.31546663       0.00000000
Si       2.57826717       0.60054714      -2.07185386       0.00000000
Si      -1.26254016      -1.65283227      -2.78546734       0.00000000
Si      -0.19921041      -1.52060634       3.19105421       0.00000000
Si       3.31848477      -0.13009194       1.54641714       0.00000000
