10
Lattice="16.28999089631971 0.0 0.0 0.0 16.28999089631971 0.0 0.0 0.0 34.71893929493243" Properties=species:S:1:pos:R:3:initial_magmoms:R:1 pbc="T T T"
Si       0.35194545       2.14167888       0.75121411       0.00000000
Si      -1.45762920      -0.41559048       1.81639176       0.00000000
Si       2.26417968      -0.83763180      -0.26285724       0.00000000
Si      -1.49235948       0.77015862      -1.82486319       0.00000000
Si      -0.11101635      -0.71342055      -3.12706717       0.00000000
Si      -1.75617603      -2.64676662       1.03695114       0.00000000
Si       2.20819095      -1.13225274      -2.61024075       0.00000000
Si       0.52575975      -3.53146023       0.98709471       0.00000000
Si      -3.45861135       1.08056457       1.61002227       0.00000000
Si       0.32718465       3.88047252      -0.79555022       0.00000000
