10
Lattice="16.28999089631971 0.0 0.0 0.0 16.28999089631971 0.0 0.0 0.0 34.71893929493243" Properties=species:S:1:pos:R:3:initial_magmoms:R:1 pbc="T T T"
Si      -1.35799956       1.35756511      -1.35688634       0.00000000
Si       1.35788553      -1.35836463      -1.35657387       0.00000000
Si      -1.35721764      -1.35839721       1.35900420       0.00000000
Si       1.35798327       1.35959485       1.35765016       0.00000000
Si       2.71457502      -0.00172674      -2.71325190       0.00000000
Si      -0.00060273       2.71357241      -2.71516145       0.00000000
Si      -2.71515204       2.71476158       0.00055550       0.00000000
Si       2.71537515       2.71459868      -0.00052078       0.00000000
Si      -0.00285075       2.71484303       2.71599470       0.00000000
Si      -2.71549413      -2.71535421       0.00024303       0.00000000
