10
Lattice="16.28999089631971 0.0 0.0 0.0 16.28999089631971 0.0 0.0 0.0 34.71893929493243" Properties=species:S:1:pos:R:3:initial_magmoms:R:1 pbc="T T T"
Si       1.35910728      -1.35354424      -1.35626140       0.00000000
Si      -1.35764118       1.35638685      -1.35744185       0.00000000
Si      -1.35739683      -1.35600729       1.35827510       0.00000000
Si       1.35796698       1.35837423       1.35810151       0.00000000
Si       2.69732770      -0.02010186      -2.72881641       0.00000000
Si       0.00060273      -2.71357241       2.71516145       0.00000000
Si      -2.71489140       2.71474479       0.00006944       0.00000000
Si      -2.71601541      -2.71410038       0.00034719       0.00000000
Si      -2.71454931       0.00118917       2.71571695       0.00000000
Si       2.71517775      -2.71529915       0.00190954       0.00000000
