10
Lattice="16.28999089631971 0.0 0.0 0.0 16.28999089631971 0.0 0.0 0.0 34.71893929493243" Properties=species:S:1:pos:R:3:initial_magmoms:R:1 pbc="T T T"
Si      -1.41921738      -1.31392859       1.34258213       0.00000000
Si      -1.34302905       1.35451350      -1.40042392       0.00000000
Si       1.18103870       1.44223515       1.47468777       0.00000000
Si       1.38909621      -1.37165547      -1.39778528       0.00000000
Si      -2.02647600       0.25327692       2.95690956       0.00000000
Si       2.74130468       2.62394433       0.06086233       0.00000000
Si      -2.75817393      -2.64819314      -0.01472084       0.00000000
Si       0.02350647       2.69716788      -2.78015534       0.00000000
Si      -2.69192250      -0.01845657      -2.78550206       0.00000000
Si       0.02777445      -2.73587416      -2.78095387       0.00000000
