10
Lattice="16.28999089631971 0.0 0.0 0.0 16.28999089631971 0.0 0.0 0.0 34.71893929493243" Properties=species:S:1:pos:R:3:initial_magmoms:R:1 pbc="T T T"
Si      -1.33895655      -1.33426454      -1.35730297       0.00000000
Si      -0.60725862       1.56720551       1.61432742       0.00000000
Si       1.41921738       1.31392859      -1.34258213       0.00000000
Si      -0.09831015      -1.85270798       2.14215975       0.00000000
Si      -1.32015789      -0.13330921       3.14057285       0.00000000
Si       2.24993312      -1.68764141       2.22906131       0.00000000
Si       2.60025608       2.75616374       0.13210564       0.00000000
Si      -2.63487492      -0.03431163      -2.77449615       0.00000000
Si       0.07618833       2.66844209      -2.74300605       0.00000000
Si      -3.20217417      -2.19768131      -0.18463542       0.00000000
