10
Lattice="16.28999089631971 0.0 0.0 0.0 16.28999089631971 0.0 0.0 0.0 34.71893929493243" Properties=species:S:1:pos:R:3:initial_magmoms:R:1 pbc="T T T"
Si       0.47034117       2.28924999       0.07134746       0.00000000
Si       0.12673620      -0.70097499      -2.26207903       0.00000000
Si       1.86981507      -1.31088888       0.81898552       0.00000000
Si      -2.39896314       0.05233977       0.80089694       0.00000000
Si      -0.97526601       2.95160139      -1.70039572       0.00000000
Si      -0.17497089       2.75815764       2.29509676       0.00000000
Si      -0.45473535       1.33042059      -3.32902735       0.00000000
Si      -1.39577607      -2.53610050      -2.38803942       0.00000000
Si      -2.11079304       1.45386621       2.74817918       0.00000000
Si       3.56173424      -1.05629247      -0.85856513       0.00000000
