10
Lattice="16.28999089631971 0.0 0.0 0.0 16.28999089631971 0.0 0.0 0.0 34.71893929493243" Properties=species:S:1:pos:R:3:initial_magmoms:R:1 pbc="T T T"
Si      -1.35483930       1.35736425      -1.36323991       0.00000000
Si       1.36042092      -1.35830907      -1.36313576       0.00000000
Si      -1.36653552      -1.34265438       1.37973142       0.00000000
Si       1.35643639       1.35832536       1.39365372       0.00000000
Si      -2.71013472       2.71199178      -0.00916581       0.00000000
Si       2.71639727       2.71415835       0.00006944       0.00000000
Si      -2.71542897      -2.71562445      -0.00534672       0.00000000
Si      -2.71272483      -0.00061902      -2.72054288       0.00000000
Si       0.00210025       2.71435383      -2.72082064       0.00000000
Si       2.71846610      -2.71713942      -0.00548560       0.00000000
