10
Lattice="16.28999089631971 0.0 0.0 0.0 16.28999089631971 0.0 0.0 0.0 34.71893929493243" Properties=species:S:1:pos:R:3:initial_magmoms:R:1 pbc="T T T"
Si      -2.28242448      -0.45444213       0.25751052       0.00000000
Si       1.18105758       1.89631890       0.79180057       0.00000000
Si       0.99748557      -1.06968285       1.93474869       0.00000000
Si       0.15328890      -0.46569852      -2.38956705       0.00000000
Si       1.46207637       1.05981111       2.95527776       0.00000000
Si       3.22631010       1.34120457      -0.36204930       0.00000000
Si      -2.43225990      -1.40260158      -2.13924336       0.00000000
Si       2.61595150      -2.29856787       0.73055633       0.00000000
Si       0.65453220       1.74521286      -3.07071830       0.00000000
Si       1.53762939      -3.23027442      -1.10916657       0.00000000
