10
Lattice="16.28999089631971 0.0 0.0 0.0 16.28999089631971 0.0 0.0 0.0 34.71893929493243" Properties=species:S:1:pos:R:3:initial_magmoms:R:1 pbc="T T T"
Si       0.58767804       1.97648199      -1.12860919       0.00000000
Si       0.52053066      -1.62118080      -1.62863163       0.00000000
Si       1.44560718      -0.66235140       1.77174318       0.00000000
Si      -2.22860232       0.25158276       0.85679446       0.00000000
Si       0.97526601      -2.95160139       1.70039572       0.00000000
Si       2.68600923       1.39665573      -2.08789402       0.00000000
Si      -1.33967331      -1.64830365      -3.02520175       0.00000000
Si      -1.89179028       1.94396715       2.56361319       0.00000000
Si       0.65129049       3.66520113       0.50769533       0.00000000
Si       1.10200221      -3.65257638      -0.56168331       0.00000000
