10
Lattice="16.28999089631971 0.0 0.0 0.0 16.28999089631971 0.0 0.0 0.0 34.71893929493243" Properties=species:S:1:pos:R:3:initial_magmoms:R:1 pbc="T T T"
Si       1.95157688       0.73298484       1.13785381       0.00000000
Si      -1.60984296       1.75112613      -0.29787378       0.00000000
Si      -0.83929338      -2.04524208       0.94212915       0.00000000
Si       0.33718671       0.11344356      -2.43267311       0.00000000
Si      -0.58384989      -2.06415477      -2.41729261       0.00000000
Si      -2.06205336      -0.64806507       2.42603133       0.00000000
Si       0.63491222       2.09735379       2.44750501       0.00000000
Si      -3.30380748       0.70139853       0.92748469       0.00000000
Si      -0.62421651       3.46559976       0.94236871       0.00000000
Si       2.95247195       2.47339215       0.00025206       0.00000000
