10
Lattice="16.28999089631971 0.0 0.0 0.0 16.28999089631971 0.0 0.0 0.0 34.71893929493243" Properties=species:S:1:pos:R:3:initial_magmoms:R:1 pbc="T T T"
Si       1.35674523       1.35677781      -1.35737241       0.00000000
Si       1.35856971      -1.35982404       1.35483793       0.00000000
Si      -1.35842310      -1.35791811      -1.35719881       0.00000000
Si      -1.36008468       1.35508365       1.36115678       0.00000000
Si       0.00167787      -2.71767699       2.70936338       0.00000000
Si       2.71332756      -0.00009774      -2.71436291       0.00000000
Si       2.71407690       2.71384884       0.00010416       0.00000000
Si      -0.00141723       2.71417464      -2.71398100       0.00000000
Si       2.71386513      -2.71445157       0.00076382       0.00000000
Si      -0.00136836      -2.71472850      -2.71429347       0.00000000
