10
Lattice="16.28999089631971 0.0 0.0 0.0 16.28999089631971 0.0 0.0 0.0 34.71893929493243" Properties=species:S:1:pos:R:3:initial_magmoms:R:1 pbc="T T T"
Si      -1.23414669       1.37138994       1.41511004       0.00000000
Si       1.34459289       1.36028016      -1.35063693       0.00000000
Si      -1.36728486      -1.35617508      -1.35167850       0.00000000
Si       1.27200465      -1.24211250       1.54610467       0.00000000
Si      -0.59670270      -1.84489137       2.88861736       0.00000000
Si      -2.44169181      -0.17609490       2.70856484       0.00000000
Si       2.27654609       0.52533621       2.93843907       0.00000000
Si       2.70243999       0.00501732      -2.70596092       0.00000000
Si       2.69928625      -2.70984150       0.05114103       0.00000000
Si      -0.01198944      -2.71080261      -2.70575261       0.00000000
