10
Lattice="16.28999089631971 0.0 0.0 0.0 16.28999089631971 0.0 0.0 0.0 34.71893929493243" Properties=species:S:1:pos:R:3:initial_magmoms:R:1 pbc="T T T"
Si       0.28101879      -0.83650779       2.16347719       0.00000000
Si      -0.64280340       2.22894441      -0.42766813       0.00000000
Si      -1.18105758      -1.89631890      -0.79180057       0.00000000
Si       2.04525252      -0.55511433      -1.15384987       0.00000000
Si      -0.18357201      -2.96600175       1.14294812       0.00000000
Si       1.35825110       3.20631183       0.15814486       0.00000000
Si      -1.76148657       1.79401770      -2.48740508       0.00000000
Si      -1.81731240      -0.25668153       3.12276202       0.00000000
Si       2.20435207       0.38395530       2.84973213       0.00000000
Si       1.26114804       2.61860121       2.48813418       0.00000000
