10
Lattice="16.28999089631971 0.0 0.0 0.0 16.28999089631971 0.0 0.0 0.0 34.71893929493243" Properties=species:S:1:pos:R:3:initial_magmoms:R:1 pbc="T T T"
Si       1.11868317       0.43492671       2.05973694       0.00000000
Si      -2.23796907      -0.46571481       0.77961422       0.00000000
Si      -0.10393020       1.85209155      -1.63758912       0.00000000
Si       1.23496119      -1.94512374      -1.37511380       0.00000000
Si      -2.26929474       0.83302173      -2.54455248       0.00000000
Si       1.76148657      -1.79401770       2.48740508       0.00000000
Si      -2.06956305       0.73953342       2.81779069       0.00000000
Si       2.70718038       1.99044252      -1.49267219       0.00000000
Si      -3.88334052      -0.10898010      -1.01785571       0.00000000
Si      -0.42875280       4.00621599      -0.28674388       0.00000000
