10
Lattice="16.28999089631971 0.0 0.0 0.0 16.28999089631971 0.0 0.0 0.0 34.71893929493243" Properties=species:S:1:pos:R:3:initial_magmoms:R:1 pbc="T T T"
Si      -0.58767804      -1.97648199       1.12860919       0.00000000
Si       0.06361245       1.68871914       1.63630452       0.00000000
Si       2.09833119      -0.57982626      -0.95928483       0.00000000
Si      -1.81845270       0.85250457      -1.39525079       0.00000000
Si       0.86341887       3.38221125       0.22501357       0.00000000
Si       1.81731240       0.25668153      -3.12276202       0.00000000
Si      -0.06714738      -3.59766279      -0.50002244       0.00000000
Si      -3.26806722       1.56879216       0.26809980       0.00000000
Si       1.63374039      -2.70932022      -1.97981390       0.00000000
Si      -2.21187249       1.90718433       2.33533604       0.00000000
