10
Lattice="16.28999089631971 0.0 0.0 0.0 16.28999089631971 0.0 0.0 0.0 34.71893929493243" Properties=species:S:1:pos:R:3:initial_magmoms:R:1 pbc="T T T"
Si      -0.92103660      -2.17759833       0.01538050       0.00000000
Si      -1.03579965       1.14671826      -1.84552097       0.00000000
Si       2.17977209       0.89135622      -0.68420652       0.00000000
Si      -0.33718671      -0.11344356       2.43267311       0.00000000
Si      -1.94702967       1.63768257       2.13479933       0.00000000
Si       2.20751396      -0.46118619      -2.64305017       0.00000000
Si       0.04176756      -0.03499092      -3.63476251       0.00000000
Si       0.96865946      -3.71151360      -0.40336486       0.00000000
Si       1.61439017       0.61954128       3.57052692       0.00000000
Si      -3.02878341      -2.33800596      -1.15471785       0.00000000
