10
Lattice="16.28999089631971 0.0 0.0 0.0 16.28999089631971 0.0 0.0 0.0 34.71893929493243" Properties=species:S:1:pos:R:3:initial_magmoms:R:1 pbc="T T T"
Si      -1.36101321      -1.36014984       1.38427613       0.00000000
Si       1.35576783       1.35794973       1.39215733       0.00000000
Si       1.43215164      -1.32506118      -1.45195380       0.00000000
Si      -1.48136373       1.32613210      -1.42766788       0.00000000
Si       2.69128037      -2.69330715       0.05318250       0.00000000
Si       2.69398825       2.69139212       0.01960232       0.00000000
Si      -2.71634121      -2.72318301      -0.00641259       0.00000000
Si      -2.72769534       2.71250396       0.02806681       0.00000000
Si      -0.00333945       2.71149398       2.74841874       0.00000000
Si       2.71183830      -0.00380517       2.75032828       0.00000000
