10
Lattice="16.28999089631971 0.0 0.0 0.0 16.28999089631971 0.0 0.0 0.0 34.71893929493243" Properties=species:S:1:pos:R:3:initial_magmoms:R:1 pbc="T T T"
Si      -1.14150546      -0.58997493       1.90697353       0.00000000
Si       2.06036964      -1.01571408       0.21112599       0.00000000
Si       1.06714161       2.02933231       0.54734438       0.00000000
Si      -1.27267254      -0.62740935      -1.91061902       0.00000000
Si       0.02019960       0.94183893      -3.36836393       0.00000000
Si      -0.57503700       3.50147753      -0.30344370       0.00000000
Si       2.82629938      -0.81500499      -2.02824685       0.00000000
Si       3.08868567       0.41671449       1.82378690       0.00000000
Si      -0.99935892      -2.93524623       2.04831441       0.00000000
Si      -1.20164814       2.66123770      -2.36995084       0.00000000
