10
Lattice="16.28999089631971 0.0 0.0 0.0 16.28999089631971 0.0 0.0 0.0 34.71893929493243" Properties=species:S:1:pos:R:3:initial_magmoms:R:1 pbc="T T T"
Si       2.06680094       0.03409497       1.15003079       0.00000000
Si      -0.74145564       2.25452853       0.17987893       0.00000000
Si       0.14250492      -1.09084356      -2.13170935       0.00000000
Si      -1.01401992      -1.98726597       0.96338167       0.00000000
Si       0.06354729      -3.16897515      -0.82585987       0.00000000
Si      -3.18262617      -1.17921681       1.12725515       0.00000000
Si       2.20155182      -2.24262801       2.12469612       0.00000000
Si       1.81120921       1.76460189       2.87830583       0.00000000
Si       0.13449024       3.53267288      -1.63057590       0.00000000
Si       0.56761758       3.51188684       1.77577058       0.00000000
