10
Lattice="16.28999089631971 0.0 0.0 0.0 16.28999089631971 0.0 0.0 0.0 34.71893929493243" Properties=species:S:1:pos:R:3:initial_magmoms:R:1 pbc="T T T"
Si      -0.90774885      -2.22690816      -0.11922490       0.00000000
Si      -1.79807065       1.47971844      -0.63636379       0.00000000
Si       2.12392278       1.09623555      -0.66865243       0.00000000
Si       0.64009926       0.37126539       2.44987388       0.00000000
Si      -1.16640147      -0.76794318      -2.87212586       0.00000000
Si      -0.83503192       3.30789627       0.45193669       0.00000000
Si       1.51409034       3.10187664       0.87165418       0.00000000
Si       1.28054061      -1.80133191       2.81980439       0.00000000
Si      -0.69851194      -2.85985611       2.18986360       0.00000000
Si       1.56418209       1.90164573      -2.94836869       0.00000000
