10
Lattice="16.28999089631971 0.0 0.0 0.0 16.28999089631971 0.0 0.0 0.0 34.71893929493243" Properties=species:S:1:pos:R:3:initial_magmoms:R:1 pbc="T T T"
Si      -2.00105450      -0.97736742      -0.58581299       0.00000000
Si       2.02561263      -0.53030466      -1.05198445       0.00000000
Si      -0.21544828       2.20561713      -0.81054881       0.00000000
Si      -0.09710306      -0.58771062       2.32998932       0.00000000
Si      -3.27517685       0.28608498       1.02663961       0.00000000
Si      -1.35825110      -3.20631183      -0.15814486       0.00000000
Si       2.45798181       2.12574726       1.55676339       0.00000000
Si       3.40311132       1.32271542      -0.46363697       0.00000000
Si       1.44754569       0.85983507       3.28069856       0.00000000
Si       0.81286774       3.63804570       0.80211210       0.00000000
