10
Lattice="16.28999089631971 0.0 0.0 0.0 16.28999089631971 0.0 0.0 0.0 34.71893929493243" Properties=species:S:1:pos:R:3:initial_magmoms:R:1 pbc="T T T"
Si       1.31666466      -1.36436895      -1.30965120       0.00000000
Si       1.37436710       1.33670853       1.34116213       0.00000000
Si      -1.33622930      -1.38215763       1.33817630       0.00000000
Si      -1.25912873       1.36824597      -1.50513630       0.00000000
Si      -0.63491222      -2.09735379      -2.44750501       0.00000000
Si       2.31755973       0.37603836      -2.44725295       0.00000000
Si       0.72094751       2.15925579      -2.70005561       0.00000000
Si      -2.24475518      -0.34622766      -2.74537878       0.00000000
Si      -2.69128037       2.69330715      -0.05318250       0.00000000
Si       0.02055793       2.68950198       2.69714578       0.00000000
