10
Lattice="16.28999089631971 0.0 0.0 0.0 16.28999089631971 0.0 0.0 0.0 34.71893929493243" Properties=species:S:1:pos:R:3:initial_magmoms:R:1 pbc="T T T"
Si       1.35727816       1.35651717       1.35685162       0.00000000
Si       1.35674385      -1.35682668      -1.35709466       0.00000000
Si      -1.35782242       1.35773892      -1.35653915       0.00000000
Si      -1.35775726      -1.35775521       1.35747657       0.00000000
Si      -0.00113293       2.71437681      -2.71321718       0.00000000
Si      -0.00226636      -2.71383255      -2.71398100       0.00000000
Si       2.71411462      -2.71391400       0.00065966       0.00000000
Si      -0.00138670      -2.71497285       2.71325190       0.00000000
Si       2.71393543       0.00125433      -2.71446707       0.00000000
Si       2.71346302      -0.00008145       2.71502257       0.00000000
