10
Lattice="16.28999089631971 0.0 0.0 0.0 16.28999089631971 0.0 0.0 0.0 34.71893929493243" Properties=species:S:1:pos:R:3:initial_magmoms:R:1 pbc="T T T"
Si       1.35946566       1.34504901      -1.36351766       0.00000000
Si      -1.35558864      -1.36826226      -1.36563552       0.00000000
Si       1.29220425      -1.38090330       1.41504060       0.00000000
Si      -1.18398978       1.45502461       1.49343601       0.00000000
Si      -2.13216552      -0.27896625       2.90507415       0.00000000
Si      -0.40790160      -2.24850870       2.84542698       0.00000000
Si       0.64382967       2.21157505       2.97180399       0.00000000
Si       2.46524715       0.25501995       2.83459466       0.00000000
Si      -2.70659164       2.70956687       0.02308811       0.00000000
Si       0.00302994       2.70438339      -2.72325096       0.00000000
