10
Lattice="16.28999089631971 0.0 0.0 0.0 16.28999089631971 0.0 0.0 0.0 34.71893929493243" Properties=species:S:1:pos:R:3:initial_magmoms:R:1 pbc="T T T"
Si       0.45785651      -1.92191049       1.25321553       0.00000000
Si      -2.34824327      -0.16506657      -0.08690155       0.00000000
Si       0.11944643       1.59008712       1.95391356       0.00000000
Si       1.13280660      -1.35861858      -2.08744267       0.00000000
Si      -2.24993312       1.68764141      -2.22906131       0.00000000
Si      -0.50518222      -3.75008832       0.16491505       0.00000000
Si       2.49121341       1.60990390       2.49351561       0.00000000
Si       2.80697877      -2.12793012       1.67293302       0.00000000
Si       3.74586921      -0.00796581       1.23967514       0.00000000
Si      -3.57009101       1.55433220       0.91151154       0.00000000
