10
Lattice="16.28999089631971 0.0 0.0 0.0 16.28999089631971 0.0 0.0 0.0 34.2284985734139" Properties=species:S:1:pos:R:3:initial_magmoms:R:1 pbc="T T T"
Si       1.40739084       1.35731538       1.25191933       0.00000000
Si      -0.93273282       1.64913444      -1.34592389       0.00000000
Si      -1.55098719      -1.41758838       1.06555874       0.00000000
Si       1.02120381      -1.42190523      -1.61338552       0.00000000
Si      -0.96275529      -1.98221607      -2.86474590       0.00000000
Si      -2.16981171       0.18568971      -2.89517505       0.00000000
Si       2.69076591       2.39583546      -0.47429468       0.00000000
Si       2.57753412      -0.14915124       2.56331311       0.00000000
Si      -0.14638194       2.58662394       2.56068778       0.00000000
Si      -2.72635956       2.54197305      -0.13518594       0.00000000
