10
Lattice="16.28999089631971 0.0 0.0 0.0 16.28999089631971 0.0 0.0 0.0 34.2284985734139" Properties=species:S:1:pos:R:3:initial_magmoms:R:1 pbc="T T T"
Si      -1.35988920       1.35439947      -1.36044666       0.00000000
Si       1.35715248      -1.36267479      -1.36106278       0.00000000
Si       1.36032903       1.36576989       1.36219232       0.00000000
Si      -1.37909511      -1.36699164       1.37420653       0.00000000
Si      -0.12118131       2.58098760       2.74694123       0.00000000
Si       2.64577293      -0.06229296       2.71836042       0.00000000
Si       2.71401174       2.71318095      -0.00171143       0.00000000
Si      -2.71528236      -2.71498914      -0.00561348       0.00000000
Si      -0.00035838       2.71324611      -2.71767585       0.00000000
Si      -2.71503801       2.71705797      -0.00191680       0.00000000
