10
Lattice="16.28999089631971 0.0 0.0 0.0 16.28999089631971 0.0 0.0 0.0 34.2284985734139" Properties=species:S:1:pos:R:3:initial_magmoms:R:1 pbc="T T T"
Si      -1.28544390       1.42806285      -1.35616810       0.00000000
Si       1.42200297      -1.31848002      -1.34942508       0.00000000
Si      -1.67604552      -1.04457996       1.32443826       0.00000000
Si       1.72579518       1.07440695       1.24102337       0.00000000
Si      -0.50225328      -1.73097540       3.29007935       0.00000000
Si      -3.37859487       0.78734457       1.52998051       0.00000000
Si      -2.64577293       0.06229296      -2.71836042       0.00000000
Si       0.07172487      -2.65429260      -2.72325510       0.00000000
Si       3.43743435      -0.83424348       1.43540712       0.00000000
Si      -2.76695424       2.64328056       0.02858081       0.00000000
