10
Lattice="16.28999089631971 0.0 0.0 0.0 16.28999089631971 0.0 0.0 0.0 34.2284985734139" Properties=species:S:1:pos:R:3:initial_magmoms:R:1 pbc="T T T"
Si      -1.91743074       1.34306163       0.30169016       0.00000000
Si      -0.96671376      -2.18139390       0.24901247       0.00000000
Si       1.65180600       1.92425625      -0.72821171       0.00000000
Si       1.94321781      -0.04489524       1.91019089       0.00000000
Si      -0.44492877      -0.87966000      -2.56669386       0.00000000
Si      -1.10063385       3.57716997       0.38510505       0.00000000
Si       1.11630483       3.55693779       1.15695813       0.00000000
Si       0.68085684      -3.78952641       0.68795898       0.00000000
Si      -3.40180812       0.73723653       2.04275794       0.00000000
Si       1.25762058      -2.71158453      -2.77223611       0.00000000
