10
Lattice="16.28999089631971 0.0 0.0 0.0 16.28999089631971 0.0 0.0 0.0 34.2284985734139" Properties=species:S:1:pos:R:3:initial_magmoms:R:1 pbc="T T T"
Si      -1.34475579      -1.35081567      -1.36096694       0.00000000
Si       1.35855342      -1.35521397       1.35883792       0.00000000
Si      -1.35555606       1.36303317       1.35897484       0.00000000
Si       1.39826844       1.33535646      -1.36573155       0.00000000
Si       0.20901699      -2.58012423      -2.66973539       0.00000000
Si      -0.01218492       2.62391175      -2.64271197       0.00000000
Si      -2.62801683       0.07842006      -2.72017453       0.00000000
Si      -2.71239903      -2.71373481      -0.00071880       0.00000000
Si       0.00153126      -2.71169856       2.71558791       0.00000000
Si      -2.71278999       0.00329058       2.71572482       0.00000000
