10
Lattice="16.28999089631971 0.0 0.0 0.0 16.28999089631971 0.0 0.0 0.0 34.2284985734139" Properties=species:S:1:pos:R:3:initial_magmoms:R:1 pbc="T T T"
Si       1.68751368      -1.76189382      -0.31969436       0.00000000
Si       0.80270604       1.76966415      -1.51252397       0.00000000
Si      -1.83619251      -0.91281015      -1.36701854       0.00000000
Si      -0.43360722      -1.00535364       2.91787845       0.00000000
Si       1.19355201       2.64681549       2.05497752       0.00000000
Si      -0.42485949      -2.12654547      -2.91483211       0.00000000
Si       2.30905863       0.60401691      -2.91856302       0.00000000
Si       1.71479943       3.48474051      -0.26311462       0.00000000
Si       3.54511125      -0.78569928      -1.48425121       0.00000000
Si      -1.40641344       3.21468489       1.76988819       0.00000000
