10
Lattice="16.28999089631971 0.0 0.0 0.0 16.28999089631971 0.0 0.0 0.0 34.2284985734139" Properties=species:S:1:pos:R:3:initial_magmoms:R:1 pbc="T T T"
Si       1.35596331      -1.35920502      -1.36030975       0.00000000
Si      -1.36089918       1.35727858      -1.36161043       0.00000000
Si       1.37528325       1.35323866       1.35897484       0.00000000
Si      -1.36550925      -1.38424275       1.35342982       0.00000000
Si      -0.04338027       2.63007656       2.70511398       0.00000000
Si       2.60016093      -0.13041774       2.78856311       0.00000000
Si       2.71326240      -2.71344159      -0.00195103       0.00000000
Si      -2.71549413      -2.71397916      -0.00301211       0.00000000
Si       2.71622718       2.71571309      -0.00530542       0.00000000
Si       2.71384884       0.00000131      -2.71860002       0.00000000
