10
Lattice="16.28999089631971 0.0 0.0 0.0 16.28999089631971 0.0 0.0 0.0 34.2284985734139" Properties=species:S:1:pos:R:3:initial_magmoms:R:1 pbc="T T T"
Si       0.69838488       2.05406346       0.84246651       0.00000000
Si       0.52124742       0.83792502      -2.31809213       0.00000000
Si       0.80298297      -1.36860435       2.04563313       0.00000000
Si      -2.59996545       0.56786940      -0.28508932       0.00000000
Si      -1.19355201      -2.64681549      -2.05497752       0.00000000
Si      -0.39084597      -0.87715134      -3.56750149       0.00000000
Si       0.76295844       1.82741220       3.17911050       0.00000000
Si      -1.17688734       3.34606115       1.30472264       0.00000000
Si      -0.25251129      -0.23143203       3.79060296       0.00000000
Si      -2.42470134       2.89168907      -0.57195853       0.00000000
