10
Lattice="16.28999089631971 0.0 0.0 0.0 16.28999089631971 0.0 0.0 0.0 34.2284985734139" Properties=species:S:1:pos:R:3:initial_magmoms:R:1 pbc="T T T"
Si      -0.08389350      -0.78102405       2.17443504       0.00000000
Si       0.63987120      -1.59995493      -1.54719746       0.00000000
Si       1.61986131       1.57056681       0.70979677       0.00000000
Si      -2.29306185       0.53454006      -0.42703499       0.00000000
Si      -1.17533979       1.17291258       2.92715438       0.00000000
Si       0.09677889       2.88020625       1.91162849       0.00000000
Si       2.49979824       2.36284725      -1.27648411       0.00000000
Si      -0.27539874      -0.99152343      -3.60244880       0.00000000
Si       2.19250368      -1.52050860       2.63292604       0.00000000
Si       0.67041495      -3.68165403      -0.39828303       0.00000000
