10
Lattice="16.28999089631971 0.0 0.0 0.0 16.28999089631971 0.0 0.0 0.0 34.2284985734139" Properties=species:S:1:pos:R:3:initial_magmoms:R:1 pbc="T T T"
Si       0.08389350       0.78102405      -2.17443504       0.00000000
Si      -1.10162754      -1.99156653       0.41543152       0.00000000
Si      -1.09144629       1.95393663       0.75271933       0.00000000
Si       2.27639718      -0.73948455       0.45849099       0.00000000
Si       0.79983900      -2.35183617       1.70040430       0.00000000
Si       1.70375481       2.35159086      -1.46463827       0.00000000
Si       3.21419619       1.52770878       0.18685348       0.00000000
Si      -2.76959322      -1.45306800       1.84970910       0.00000000
Si      -0.68598819       1.80667503       3.09555868       0.00000000
Si      -2.20916835       1.31556411      -2.60147003       0.00000000
