10
Lattice="16.28999089631971 0.0 0.0 0.0 16.28999089631971 0.0 0.0 0.0 34.2284985734139" Properties=species:S:1:pos:R:3:initial_magmoms:R:1 pbc="T T T"
Si      -1.34480466      -1.35185171       1.37093428       0.00000000
Si      -1.41641550       1.23105159      -1.43902507       0.00000000
Si       1.36907676       1.36594908       1.36545772       0.00000000
Si       1.31183370      -1.39687564      -1.42790765       0.00000000
Si       0.14996574       2.41940709      -2.69452686       0.00000000
Si      -2.68569972       2.70746316       0.01088125       0.00000000
Si      -2.68856676      -2.70908612       0.00703054       0.00000000
Si       2.71218726      -2.70556442       0.00879673       0.00000000
Si      -2.70412371       0.00995319       2.72747890       0.00000000
Si       0.00786807      -2.70575529       2.72850575       0.00000000
