10
Lattice="16.28999089631971 0.0 0.0 0.0 16.28999089631971 0.0 0.0 0.0 34.2284985734139" Properties=species:S:1:pos:R:3:initial_magmoms:R:1 pbc="T T T"
Si       1.14280866       1.90779520       0.50671898       0.00000000
Si      -0.87993693      -0.79228044       1.98628088       0.00000000
Si       1.33907058      -1.58537442      -1.02545216       0.00000000
Si      -1.75630635       0.57175456      -1.51413271       0.00000000
Si      -0.63636885       3.12092779       1.41083104       0.00000000
Si       0.51895053      -1.67874870      -3.17900781       0.00000000
Si      -1.75972725      -1.29552645      -2.93745716       0.00000000
Si      -2.49979824      -2.36284725       1.27648411       0.00000000
Si       2.07767547       2.67365327      -1.50359033       0.00000000
Si       0.35417718      -3.71670915      -0.94943062       0.00000000
