10
Lattice="16.28999089631971 0.0 0.0 0.0 16.28999089631971 0.0 0.0 0.0 34.2284985734139" Properties=species:S:1:pos:R:3:initial_magmoms:R:1 pbc="T T T"
Si      -1.40080968      -1.14311817      -1.47685785       0.00000000
Si       1.29762882       1.40172192      -1.49732651       0.00000000
Si       0.95086359      -2.07474327       0.96175289       0.00000000
Si       0.06172281      -2.46668067      -2.90993743       0.00000000
Si       1.30609962      -1.49214771       3.26427105       0.00000000
Si      -3.25840725      -2.11931271      -0.31230100       0.00000000
Si       3.15426528       2.31062247      -0.28142687       0.00000000
Si      -2.63686230       0.24659802      -2.91116966       0.00000000
Si       2.47990815       2.14669620       2.18175995       0.00000000
Si       1.11426858       0.76044978       3.71375994       0.00000000
