10
Lattice="16.28999089631971 0.0 0.0 0.0 16.28999089631971 0.0 0.0 0.0 34.2284985734139" Properties=species:S:1:pos:R:3:initial_magmoms:R:1 pbc="T T T"
Si       0.91162098      -2.16152010      -0.32428098       0.00000000
Si      -2.35916667      -0.53291106       0.04976826       0.00000000
Si       0.98230329       0.83434122       2.06551990       0.00000000
Si       1.19966076       0.74106468      -2.08862415       0.00000000
Si       1.00782972       2.99366217      -1.63913526       0.00000000
Si      -3.26902833       0.85020768      -1.65577032       0.00000000
Si      -0.32775480      -3.13564581      -2.05614129       0.00000000
Si      -2.44211535      -2.75162535      -0.90253755       0.00000000
Si      -0.89761158       3.65824530      -0.48368318       0.00000000
Si       0.16992099      -3.68136081       1.28610232       0.00000000
