10
Lattice="16.28999089631971 0.0 0.0 0.0 16.28999089631971 0.0 0.0 0.0 34.2284985734139" Properties=species:S:1:pos:R:3:initial_magmoms:R:1 pbc="T T T"
Si      -0.21378996      -2.18685105       0.79536807       0.00000000
Si      -1.19871594       1.33130025       1.55948550       0.00000000
Si       1.98016353       0.82267758       1.13542839       0.00000000
Si      -1.27902564       0.24260697      -2.13260780       0.00000000
Si      -3.01293324      -0.24742881       1.71070709       0.00000000
Si       2.45241063       2.61908991      -0.31117145       0.00000000
Si       0.62724645       1.71382203       3.17134062       0.00000000
Si      -2.47867011      -2.50944192       1.22900916       0.00000000
Si       0.57834387      -2.16178074       3.00834442       0.00000000
Si      -1.48729329       3.51520281       0.72704794       0.00000000
