10
Lattice="16.28999089631971 0.0 0.0 0.0 16.28999089631971 0.0 0.0 0.0 34.2284985734139" Properties=species:S:1:pos:R:3:initial_magmoms:R:1 pbc="T T T"
Si      -1.88367786      -0.80052318       1.35495440       0.00000000
Si      -0.15519483       0.86885973      -2.31258134       0.00000000
Si       0.77411709       1.87124859       1.55364752       0.00000000
Si       1.83242952      -1.77808608       0.37458804       0.00000000
Si       0.77786379       3.06967131      -1.96218401       0.00000000
Si      -0.60064488      -2.14296579       3.00576842       0.00000000
Si       2.14718490       0.57959820       3.01832687       0.00000000
Si      -0.20409741      -3.00674304      -2.47557754       0.00000000
Si      -3.16263834      -2.33577423      -0.01136387       0.00000000
Si       3.53932830      -0.69919938       1.60860483       0.00000000
