10
Lattice="16.28999089631971 0.0 0.0 0.0 16.28999089631971 0.0 0.0 0.0 34.2284985734139" Properties=species:S:1:pos:R:3:initial_magmoms:R:1 pbc="T T T"
Si       1.41675759      -1.27524636       1.38125076       0.00000000
Si      -1.27731519       1.46593404       1.38776787       0.00000000
Si       1.71763389       1.01351493      -1.34221112       0.00000000
Si      -1.89486909      -0.92975175      -1.16528764       0.00000000
Si       3.41436771      -0.74165112      -1.36599994       0.00000000
Si      -3.44354310       0.91971711      -1.26890523       0.00000000
Si       0.68271390       0.93475278      -3.60423694       0.00000000
Si       0.06812478      -2.60364699       2.75215081       0.00000000
Si      -2.59390557       2.76703147      -0.05401945       0.00000000
Si      -2.66579334      -2.69700498       0.10724821       0.00000000
