10
Lattice="16.28999089631971 0.0 0.0 0.0 16.28999089631971 0.0 0.0 0.0 34.2284985734139" Properties=species:S:1:pos:R:3:initial_magmoms:R:1 pbc="T T T"
Si       1.35554218      -1.35508435      -1.36089164       0.00000000
Si      -1.35745048      -1.35718576       1.35726341       0.00000000
Si       1.35771201       1.35761998       1.35722918       0.00000000
Si      -1.35847675       1.35660022      -1.36054935       0.00000000
Si      -2.71471699       2.71354582      -0.00041074       0.00000000
Si       0.00104751       2.71439290       2.71449260       0.00000000
Si      -2.71419571      -2.71477807      -0.00112954       0.00000000
Si      -2.71435861      -0.00038023       2.71469797       0.00000000
Si       0.00038166      -2.71494097       2.71452682       0.00000000
Si       2.71513816      -0.00029057       2.71452682       0.00000000
