10
Lattice="16.28999089631971 0.0 0.0 0.0 16.28999089631971 0.0 0.0 0.0 34.2284985734139" Properties=species:S:1:pos:R:3:initial_magmoms:R:1 pbc="T T T"
Si       0.19183104      -2.25259749      -0.44948889       0.00000000
Si      -1.90544130       0.66458313       1.15545207       0.00000000
Si       2.07029610      -0.24021234       1.16394074       0.00000000
Si       1.36563957       1.38624642      -1.53200000       0.00000000
Si       2.57608431      -2.10492864      -0.33790393       0.00000000
Si      -1.00782972      -2.99366217       1.63913526       0.00000000
Si       1.54189737       3.22921557      -0.10932589       0.00000000
Si       2.37457701       2.02965255       1.79398507       0.00000000
Si      -1.82500128       2.97313677       1.28617078       0.00000000
Si       3.33086517      -0.25811505      -1.66881138       0.00000000
