10
Lattice="16.28999089631971 0.0 0.0 0.0 16.28999089631971 0.0 0.0 0.0 34.2284985734139" Properties=species:S:1:pos:R:3:initial_magmoms:R:1 pbc="T T T"
Si       1.35723393       1.35680224      -1.35740033       0.00000000
Si       1.35759231      -1.35712381       1.35770838       0.00000000
Si      -1.35904212      -1.35744014      -1.35633924       0.00000000
Si      -1.35760860       1.35802400       1.35746878       0.00000000
Si      -2.71171485      -0.00353656      -2.71391071       0.00000000
Si       0.00117288      -2.71200711      -2.71421877       0.00000000
Si       2.71450044      -2.71392933       0.00027383       0.00000000
Si      -2.71503801      -2.71435287       0.00051343       0.00000000
Si      -0.00131949      -2.71619364       2.71408185       0.00000000
Si       2.71495656       2.71556743      -0.00027383       0.00000000
