10
Lattice="16.28999089631971 0.0 0.0 0.0 16.28999089631971 0.0 0.0 0.0 34.2284985734139" Properties=species:S:1:pos:R:3:initial_magmoms:R:1 pbc="T T T"
Si      -1.96994970       1.21805217       0.14800411       0.00000000
Si      -0.24682608      -1.53837547       1.77320836       0.00000000
Si       0.12947292      -0.89598747      -2.19986683       0.00000000
Si       1.80607230       1.57201758       0.25743268       0.00000000
Si       0.42919263       2.53684170      -1.91166271       0.00000000
Si       2.04954264      -1.91168803       1.83653112       0.00000000
Si       2.65904928       0.32496921       2.20445345       0.00000000
Si      -1.32602229       3.32632026      -0.60139506       0.00000000
Si      -0.48014775       1.02131784      -3.45122721       0.00000000
Si      -1.87085763      -3.17326661       1.22637356       0.00000000
