10
Lattice="16.28999089631971 0.0 0.0 0.0 16.28999089631971 0.0 0.0 0.0 34.2284985734139" Properties=species:S:1:pos:R:3:initial_magmoms:R:1 pbc="T T T"
Si       1.35695700      -1.35715248       1.35716073       0.00000000
Si      -1.35817875      -1.35627282      -1.35716073       0.00000000
Si      -1.35731538       1.35762489       1.35692113       0.00000000
Si       1.35778779       1.35698958      -1.35746878       0.00000000
Si      -0.00363267       2.71221984       2.71356843       0.00000000
Si      -2.71339272      -0.00091224      -2.71401340       0.00000000
Si       2.71451673       2.71466334      -0.00010269       0.00000000
Si      -0.00073305      -2.71469592       2.71469797       0.00000000
Si       2.71435383       0.00027693       2.71504025       0.00000000
Si      -2.71487511       2.71459818      -0.00037651       0.00000000
