10
Lattice="16.28999089631971 0.0 0.0 0.0 16.28999089631971 0.0 0.0 0.0 34.2284985734139" Properties=species:S:1:pos:R:3:initial_magmoms:R:1 pbc="T T T"
Si      -0.61753761      -1.85184720      -1.38824022       0.00000000
Si      -1.63707984       1.83752829      -0.17716681       0.00000000
Si       1.95644529       0.53367669      -1.50543867       0.00000000
Si       0.25143615      -2.55280590       1.32156307       0.00000000
Si      -1.76370201      -0.53989947      -2.90932132       0.00000000
Si       2.36302041      -1.68826302       2.00373743       0.00000000
Si      -3.12502473       0.75750129      -1.60610474       0.00000000
Si       0.95451255       2.16935559      -2.86448196       0.00000000
Si      -2.46081627      -2.79842652      -0.07266714       0.00000000
Si      -0.47019456       3.46271643      -1.45981205       0.00000000
