10
Lattice="16.28999089631971 0.0 0.0 0.0 16.28999089631971 0.0 0.0 0.0 34.2284985734139" Properties=species:S:1:pos:R:3:initial_magmoms:R:1 pbc="T T T"
Si      -1.14616440       1.31194773      -1.52108110       0.00000000
Si       0.61753761       1.85184720       1.38824022       0.00000000
Si      -1.84327866      -0.94657932       1.31557308       0.00000000
Si       1.56201552      -1.40714649      -1.44523070       0.00000000
Si       0.86897376      -0.70095870       2.70980329       0.00000000
Si       2.57398290       2.38552389      -0.11719844       0.00000000
Si      -2.50748712       2.60934849      -0.21786452       0.00000000
Si      -2.49385239      -0.05098770      -2.83976897       0.00000000
Si      -3.55491783       0.96207111       1.12118933       0.00000000
Si       0.21685248       2.66475078      -2.84182268       0.00000000
