10
Lattice="16.28999089631971 0.0 0.0 0.0 16.28999089631971 0.0 0.0 0.0 34.2284985734139" Properties=species:S:1:pos:R:3:initial_magmoms:R:1 pbc="T T T"
Si       0.01078561       1.23787710      -1.97618347       0.00000000
Si      -1.06278417       1.00352916       1.93469851       0.00000000
Si       2.15630567       0.44391879       1.17006765       0.00000000
Si      -1.02131735      -2.29022739       0.28351481       0.00000000
Si       0.67192829      -0.16190631       2.91113543       0.00000000
Si      -0.25853696      -2.24637471       2.68406344       0.00000000
Si      -1.42789248      -0.06828768      -3.22566128       0.00000000
Si      -3.38433777      -0.60196437      -1.72022261       0.00000000
Si       0.05061629      -3.87969156      -1.37116019       0.00000000
Si      -0.40272627       3.16364832       2.61591447       0.00000000
