10
Lattice="16.28999089631971 0.0 0.0 0.0 16.28999089631971 0.0 0.0 0.0 34.2284985734139" Properties=species:S:1:pos:R:3:initial_magmoms:R:1 pbc="T T T"
Si       1.17127773       1.95799284       0.47632405       0.00000000
Si       1.14573501      -1.67018112      -1.19953840       0.00000000
Si      -1.18933290      -1.19158092       1.64871924       0.00000000
Si      -1.76614551       1.14150546      -1.13060217       0.00000000
Si      -2.16858996      -0.73208889      -2.48057491       0.00000000
Si      -0.18275751      -1.85288976      -3.12085356       0.00000000
Si       3.28482053      -0.76468518      -1.48787944       0.00000000
Si       0.91040805      -3.57034446       0.17216944       0.00000000
Si      -3.33506799      -0.33979311       1.71228160       0.00000000
Si       1.65774438       3.02083389      -1.55719218       0.00000000
