10
Lattice="16.28999089631971 0.0 0.0 0.0 16.28999089631971 0.0 0.0 0.0 34.2284985734139" Properties=species:S:1:pos:R:3:initial_magmoms:R:1 pbc="T T T"
Si      -0.73464642       0.30687102       2.22885839       0.00000000
Si       1.03272084      -2.13387597       0.06205630       0.00000000
Si       1.80545328       0.95107536      -1.23691594       0.00000000
Si      -1.99018188       0.32184153      -1.32584163       0.00000000
Si       0.99917973       0.42639075      -3.34665909       0.00000000
Si      -1.14655536       1.27817856      -3.28309673       0.00000000
Si      -2.60874576       1.89162738       1.92189704       0.00000000
Si       3.20735995      -1.78225632       0.84174771       0.00000000
Si      -0.13489749      -3.59269434       1.46450136       0.00000000
Si      -3.40087959       1.86655707      -0.29107931       0.00000000
