10
Lattice="16.28999089631971 0.0 0.0 0.0 16.28999089631971 0.0 0.0 0.0 34.2284985734139" Properties=species:S:1:pos:R:3:initial_magmoms:R:1 pbc="T T T"
Si       0.86309307       1.82246004       1.21860369       0.00000000
Si      -1.29872025       1.40489847      -1.40586791       0.00000000
Si      -1.16688528      -1.62518814       1.28264524       0.00000000
Si       1.42470711      -1.29336084      -1.40466991       0.00000000
Si       0.47019456      -3.46271643       1.45981205       0.00000000
Si      -2.65483017      -2.70521514      -0.14629268       0.00000000
Si      -2.78519904       2.58176952       0.01091890       0.00000000
Si       2.42663985      -2.92903974      -0.04562661       0.00000000
Si      -0.92856258       3.49067007       1.22681853       0.00000000
Si      -2.64189591       0.06460614      -2.77127771       0.00000000
