10
Lattice="16.28999089631971 0.0 0.0 0.0 16.28999089631971 0.0 0.0 0.0 34.2284985734139" Properties=species:S:1:pos:R:3:initial_magmoms:R:1 pbc="T T T"
Si      -1.23411411       1.39062843       1.42828074       0.00000000
Si       1.50023220      -1.32717888       1.40190767       0.00000000
Si       0.80228250       1.94585420      -1.27352540       0.00000000
Si      -1.94318523      -0.82047843      -1.32725326       0.00000000
Si      -2.58201387      -2.73432537      -0.04223115       0.00000000
Si      -2.63446767       2.69931720      -0.00842364       0.00000000
Si      -2.57821830       0.03587058       2.79011024       0.00000000
Si       0.34008633       1.33775109      -3.56247815       0.00000000
Si       0.13334994      -2.68293042       2.78833035       0.00000000
Si       0.13408299       2.74773434       2.78679007       0.00000000
