10
Lattice="16.28999089631971 0.0 0.0 0.0 16.28999089631971 0.0 0.0 0.0 34.2284985734139" Properties=species:S:1:pos:R:3:initial_magmoms:R:1 pbc="T T T"
Si       0.93046525       2.08446840       0.22707199       0.00000000
Si       1.89874285      -1.33131654       0.29231154       0.00000000
Si      -1.24870410      -0.52926210       1.90851369       0.00000000
Si      -0.76278039      -0.04385268      -2.40054863       0.00000000
Si       0.59845876      -3.27751542       0.03094258       0.00000000
Si      -1.64720637      -2.57380371      -1.32895643       0.00000000
Si      -1.46676204      -2.78042607       1.18149997       0.00000000
Si      -0.80424720       3.24990387      -0.74936494       0.00000000
Si       0.25853696       2.24637471      -2.68406344       0.00000000
Si       1.67288200       2.46910788       2.34102524       0.00000000
