10
Lattice="16.28999089631971 0.0 0.0 0.0 16.28999089631971 0.0 0.0 0.0 34.2284985734139" Properties=species:S:1:pos:R:3:initial_magmoms:R:1 pbc="T T T"
Si      -1.85663646      -0.90890055      -1.21589963       0.00000000
Si       1.06684839       1.86753447      -1.06324045       0.00000000
Si       1.79165565      -1.66821003      -0.00821484       0.00000000
Si      -0.67435713      -0.16392627       2.46318682       0.00000000
Si       1.29086847      -1.80828774       2.32637543       0.00000000
Si      -0.37015767      -2.08577160      -2.63268644       0.00000000
Si       2.36377674       0.64047393      -2.62495079       0.00000000
Si       0.92856258      -3.49067007      -1.22681853       0.00000000
Si      -3.15426528      -2.31062247       0.28142687       0.00000000
Si       3.73178343      -0.71809578      -1.19943572       0.00000000
