10
Lattice="16.28999089631971 0.0 0.0 0.0 16.28999089631971 0.0 0.0 0.0 34.2284985734139" Properties=species:S:1:pos:R:3:initial_magmoms:R:1 pbc="T T T"
Si       0.96886404      -0.25972776      -2.15020125       0.00000000
Si      -2.32213950      -0.41379858      -0.30316198       0.00000000
Si       1.03770558      -1.63330056       1.40843505       0.00000000
Si       0.01879866       2.13783837       1.12598132       0.00000000
Si       3.27688730      -0.21032019      -1.74760543       0.00000000
Si      -2.14496946       2.16070790       2.16916385       0.00000000
Si      -3.42016695       0.21121614       1.73480396       0.00000000
Si       0.20715993      -1.49071419       3.55949201       0.00000000
Si      -2.62642041      -2.68366347      -0.93320631       0.00000000
Si       0.40674501       1.77830015      -3.47111398       0.00000000
