10
Lattice="16.28999089631971 0.0 0.0 0.0 16.28999089631971 0.0 0.0 0.0 34.2284985734139" Properties=species:S:1:pos:R:3:initial_magmoms:R:1 pbc="T T T"
Si       1.91743074      -1.34306163      -0.30169016       0.00000000
Si      -1.48437738      -0.60582510       1.74106778       0.00000000
Si       0.81679689       2.23410834       0.08341490       0.00000000
Si      -2.15630567      -0.44391879      -1.17006765       0.00000000
Si      -3.21908984       0.55961037       0.76463086       0.00000000
Si      -0.27833094       2.94397767       2.12138084       0.00000000
Si       0.95071698      -3.52445553      -0.05267769       0.00000000
Si       3.56923674       0.58119462      -1.02990187       0.00000000
Si       3.03373557       2.21387616       0.85526797       0.00000000
Si      -2.14552006       0.79395831      -3.14625112       0.00000000
