10
Lattice="16.28999089631971 0.0 0.0 0.0 16.28999089631971 0.0 0.0 0.0 34.2284985734139" Properties=species:S:1:pos:R:3:initial_magmoms:R:1 pbc="T T T"
Si       1.34998488       1.32973641       1.35644193       0.00000000
Si       1.35529542      -1.35775521      -1.35801644       0.00000000
Si      -1.35854365       1.35643572      -1.35777684       0.00000000
Si      -1.34947012      -1.37354022       1.38758988       0.00000000
Si      -0.03834666       2.62656702       2.70460055       0.00000000
Si       2.56200975      -0.18681372       2.77233879       0.00000000
Si      -0.00122175       2.71421057      -2.71521140       0.00000000
Si       2.71549413       2.71397916       0.00301211       0.00000000
Si       2.71415835      -0.00092853      -2.71572482       0.00000000
Si      -0.00073305      -2.71573848      -2.71527985       0.00000000
