10
Lattice="16.28999089631971 0.0 0.0 0.0 16.28999089631971 0.0 0.0 0.0 34.2284985734139" Properties=species:S:1:pos:R:3:initial_magmoms:R:1 pbc="T T T"
Si       1.87862796       0.74613480       1.14733991       0.00000000
Si       1.38833154      -1.29683061      -1.34815863       0.00000000
Si      -1.49438596      -1.08121617       1.42722650       0.00000000
Si      -1.31555271       1.45859098      -1.32707386       0.00000000
Si       0.56650104       0.95545967       3.06328119       0.00000000
Si       0.39123693      -1.36836000       3.35015040       0.00000000
Si      -3.28359878       0.67262780       1.54387729       0.00000000
Si      -2.66037089      -2.63309931       0.09200626       0.00000000
Si       0.03834666      -2.62656702      -2.70460055       0.00000000
Si      -2.68082398       0.08869145      -2.70384753       0.00000000
