10
Lattice="16.28999089631971 0.0 0.0 0.0 16.28999089631971 0.0 0.0 0.0 34.2284985734139" Properties=species:S:1:pos:R:3:initial_magmoms:R:1 pbc="T T T"
Si       0.17526411       2.32381967      -0.28686921       0.00000000
Si      -0.84978414       0.13631472       2.28602001       0.00000000
Si       2.59996545      -0.56786940       0.28508932       0.00000000
Si      -1.88562289       0.28714383      -1.92292390       0.00000000
Si       1.48739103       2.11449480      -2.20281049       0.00000000
Si       1.42307811       2.77819175       1.58981196       0.00000000
Si      -0.39123693       1.36836000      -3.35015040       0.00000000
Si      -3.15780740       0.08690715       1.88342419       0.00000000
Si       3.12121287       0.27005562      -2.03300281       0.00000000
Si       3.29835033       1.48619406       1.12755583       0.00000000
