10
Lattice="10.86 0.0 0.0 0.0 10.86 0.0 0.0 0.0 10.86" Properties=species:S:1:pos:R:3:initial_magmoms:R:1 pbc="T T T"
Si      -1.34307792       1.29272010      -1.22776644       0.00000000
Si       1.37192208      -1.42227990      -1.22776644       0.00000000
Si       1.37192208       1.29272010       1.48723356       0.00000000
Si       0.01442208       2.65022010      -2.58526644       0.00000000
Si      -2.70057792      -0.06477990      -2.58526644       0.00000000
Si       0.18299100       2.65431432       2.65212060       0.00000000
Si       2.72942208      -0.06477990      -2.58526644       0.00000000
Si       0.01442208      -2.77977990      -2.58526644       0.00000000
Si       2.72942208       2.65022010       0.12973356       0.00000000
Si       0.15802386      -2.76792078       2.69812356       0.00000000
