10
Lattice="10.86 0.0 0.0 0.0 10.86 0.0 0.0 0.0 10.86" Properties=species:S:1:pos:R:3:initial_magmoms:R:1 pbc="T T T"
Si      -1.32446388      -1.19366604       1.34741106       0.00000000
Si       1.39053612      -1.19366604      -1.36758894       0.00000000
Si       1.39053612       1.52133396       1.34741106       0.00000000
Si      -2.55818160      -2.47584108      -0.04448256       0.00000000
Si       0.03303612      -2.55116604       2.70491106       0.00000000
Si       2.74803612      -2.55116604      -0.01008894       0.00000000
Si      -2.68196388       0.16383396       2.70491106       0.00000000
Si       0.17663790      -2.53930692      -2.87169894       0.00000000
Si       2.74803612       0.16383396       2.70491106       0.00000000
Si       2.74803612       0.16383396      -2.72508894       0.00000000
