10
Lattice="10.86 0.0 0.0 0.0 10.86 0.0 0.0 0.0 10.86" Properties=species:S:1:pos:R:3:initial_magmoms:R:1 pbc="T T T"
Si       1.18893108      -1.36159422      -1.16488704       0.00000000
Si      -1.52606892       1.35340578      -1.16488704       0.00000000
Si       1.18893108       1.35340578       1.55011296       0.00000000
Si       2.54643108      -0.00409422      -2.52238704       0.00000000
Si      -0.16856892       2.71090578      -2.52238704       0.00000000
Si       2.54643108       2.71090578       0.19261296       0.00000000
Si       2.54643108      -2.71909422       0.19261296       0.00000000
Si      -0.18299100      -2.65431432      -2.65212060       0.00000000
Si       2.54643108      -0.00409422       2.90761296       0.00000000
Si      -2.88344946       0.15332148      -2.57676306       0.00000000
