10
Lattice="16.28999089631971 0.0 0.0 0.0 16.28999089631971 0.0 0.0 0.0 34.45770212530097" Properties=species:S:1:pos:R:3:initial_magmoms:R:1 pbc="T T T"
Si      -1.42288493       1.26139334       1.40271526       0.00000000
Si      -1.83992522      -0.89342831      -1.19412062       0.00000000
Si       1.26394599      -1.45844973       1.38342238       0.00000000
Si       1.87563549       0.88424726      -1.34692618       0.00000000
Si      -0.47277490      -0.66323106      -3.14661851       0.00000000
Si      -2.84208602       2.45157332       0.01596426       0.00000000
Si       2.66653128       2.67267749      -0.00538230       0.00000000
Si       2.62510581      -0.09018959       2.74818246       0.00000000
Si      -0.08809143       2.62291154       2.75572870       0.00000000
Si       2.63535222      -2.77573196      -0.05884001       0.00000000
