10
Lattice="16.28999089631971 0.0 0.0 0.0 16.28999089631971 0.0 0.0 0.0 34.45770212530097" Properties=species:S:1:pos:R:3:initial_magmoms:R:1 pbc="T T T"
Si       1.34096022       1.34566803       1.37503193       0.00000000
Si      -1.33384149       1.39546656      -1.38211643       0.00000000
Si      -1.37526696      -1.36740052       1.37144832       0.00000000
Si       1.31896872      -1.42825833      -1.43366174       0.00000000
Si      -2.12473728      -0.39296367      -2.72366032       0.00000000
Si       2.69158041       2.69549001      -0.02429269       0.00000000
Si      -0.66376863      -2.34504487      -2.93285314       0.00000000
Si       2.67983532      -2.73833377       0.01173630       0.00000000
Si       2.69874801      -0.01084914       2.73156350       0.00000000
Si      -0.01495422       2.70322776       2.73304518       0.00000000
