10
Lattice="16.28999089631971 0.0 0.0 0.0 16.28999089631971 0.0 0.0 0.0 34.45770212530097" Properties=species:S:1:pos:R:3:initial_magmoms:R:1 pbc="T T T"
Si      -1.35687555      -1.35692225      -1.35615254       0.00000000
Si       1.35819504       1.35764607      -1.35591134       0.00000000
Si      -1.35855342       1.35670125       1.36245830       0.00000000
Si       1.36177884      -1.35692672       1.35997735       0.00000000
Si      -2.70734587       0.00423540       2.71923108       0.00000000
Si       0.00039096      -2.71424210      -2.71299424       0.00000000
Si      -2.71418441       0.00017430      -2.71326990       0.00000000
Si      -2.71324774      -2.71518692       0.00268770       0.00000000
Si      -2.71436035       2.71424469       0.00151614       0.00000000
Si       0.00040725       2.71549902      -2.71354556       0.00000000
