10
Lattice="16.28999089631971 0.0 0.0 0.0 16.28999089631971 0.0 0.0 0.0 34.45770212530097" Properties=species:S:1:pos:R:3:initial_magmoms:R:1 pbc="T T T"
Si      -1.68915897      -0.77043555      -1.39836325       0.00000000
Si       1.80489942      -1.63207881       0.02432715       0.00000000
Si       0.89246394       1.81224621      -1.37358815       0.00000000
Si      -0.33000282      -2.03272647      -2.75138014       0.00000000
Si      -1.39606929       2.30847219       2.13920426       0.00000000
Si       1.06339491       2.82194928       2.03521086       0.00000000
Si       2.39427162       0.69471963      -2.74696955       0.00000000
Si       2.60869689       2.63754648       0.00344577       0.00000000
Si       0.96826131      -3.42659240      -1.29926284       0.00000000
Si       1.40015808      -2.94374961       1.99399942       0.00000000
