10
Lattice="16.28999089631971 0.0 0.0 0.0 16.28999089631971 0.0 0.0 0.0 34.45770212530097" Properties=species:S:1:pos:R:3:initial_magmoms:R:1 pbc="T T T"
Si      -0.58775949       1.01003539      -1.93755767       0.00000000
Si       2.09383515      -1.02840466       0.14461906       0.00000000
Si      -0.74617974       1.80270679       1.47289530       0.00000000
Si      -1.41617115      -2.06614282       0.05178996       0.00000000
Si      -1.07056251      -1.91010091       2.42441082       0.00000000
Si       1.29233457      -2.17629580       2.15660541       0.00000000
Si      -1.66335561      -0.73156828      -2.94203471       0.00000000
Si      -1.47786138       0.31002151       3.16287425       0.00000000
Si       1.19480634       1.91002531      -2.99496177       0.00000000
Si       2.77273719      -2.48429083      -1.75803294       0.00000000
