10
Lattice="16.28999089631971 0.0 0.0 0.0 16.28999089631971 0.0 0.0 0.0 34.45770212530097" Properties=species:S:1:pos:R:3:initial_magmoms:R:1 pbc="T T T"
Si      -0.70125192      -1.70789803       1.49727900       0.00000000
Si      -1.46096865       1.95208120       0.20919283       0.00000000
Si       1.98273735       0.91678654       1.49919141       0.00000000
Si      -1.89167625      -1.10335984      -1.55356083       0.00000000
Si       0.18901287       2.63924227      -2.31328467       0.00000000
Si      -2.07265815      -0.39061579       2.93954139       0.00000000
Si       0.66376863       2.34504487       2.93285314       0.00000000
Si       2.53827522       1.78452226      -2.22283315       0.00000000
Si      -3.33660414       1.06783393       1.55611901       0.00000000
Si      -2.15215335      -3.31914193      -0.37662289       0.00000000
