10
Lattice="16.28999089631971 0.0 0.0 0.0 16.28999089631971 0.0 0.0 0.0 34.45770212530097" Properties=species:S:1:pos:R:3:initial_magmoms:R:1 pbc="T T T"
Si      -0.39918645      -0.80852157      -2.17468197       0.00000000
Si      -0.59777784      -1.96641477       1.25431068       0.00000000
Si       2.01507300       0.78234354       1.16450352       0.00000000
Si      -1.69440435       1.83669750       0.08141429       0.00000000
Si      -2.01334626      -0.66381750       2.64323940       0.00000000
Si       0.71680887       2.06993772       2.64631992       0.00000000
Si      -2.83859766      -1.08670590      -1.65350893       0.00000000
Si      -3.45349792       0.71162865       1.26597462       0.00000000
Si      -0.49935366       3.54146229       1.17244258       0.00000000
Si       3.00899106       2.55225204       0.00181454       0.00000000
