10
Lattice="16.28999089631971 0.0 0.0 0.0 16.28999089631971 0.0 0.0 0.0 34.45770212530097" Properties=species:S:1:pos:R:3:initial_magmoms:R:1 pbc="T T T"
Si       0.99391806       1.76990850      -1.16268897       0.00000000
Si      -1.29826413       1.28759418       1.48181640       0.00000000
Si      -2.01507300      -0.78234354      -1.16450352       0.00000000
Si       1.41257106      -1.44873486       1.44763090       0.00000000
Si       2.43574596       0.25444980      -2.24615211       0.00000000
Si      -2.51442666       2.75911875       0.00793906       0.00000000
Si      -2.61285084      -2.74875831       0.08980716       0.00000000
Si      -0.70477056       3.51034839      -1.47109458       0.00000000
Si       0.06411744       2.63044404       2.84926419       0.00000000
Si      -2.65064364      -0.08270433       2.84409553       0.00000000
