10
Lattice="16.28999089631971 0.0 0.0 0.0 16.28999089631971 0.0 0.0 0.0 34.45770212530097" Properties=species:S:1:pos:R:3:initial_magmoms:R:1 pbc="T T T"
Si       0.84204639       1.73319084       1.36438246       0.00000000
Si       1.69868862      -1.74043989       0.30840560       0.00000000
Si      -1.80965610      -0.75122964       1.47903364       0.00000000
Si      -0.29183535       0.40321008      -2.48629689       0.00000000
Si       2.11854708       0.48382929       2.95820024       0.00000000
Si       1.80146223      -0.94366341      -3.10119492       0.00000000
Si      -0.59349357      -2.22275421       2.95291098       0.00000000
Si       2.78076816       2.57650785       0.24944124       0.00000000
Si       0.70477056      -3.51034839       1.47109458       0.00000000
Si      -3.00470679      -2.45599443       0.38800535       0.00000000
