10
Lattice="16.28999089631971 0.0 0.0 0.0 16.28999089631971 0.0 0.0 0.0 34.45770212530097" Properties=species:S:1:pos:R:3:initial_magmoms:R:1 pbc="T T T"
Si       1.33426503       1.34503885      -1.36233081       0.00000000
Si       1.35477414      -1.35775521       1.35904699       0.00000000
Si      -1.36075257       1.35523008       1.35704844       0.00000000
Si      -1.34830701      -1.36373364      -1.39376659       0.00000000
Si       2.61682560      -0.09687663      -2.72432393       0.00000000
Si       2.70958086      -2.71665072      -0.00106819       0.00000000
Si       2.71342530       2.71387883      -0.00265324       0.00000000
Si       2.71179630      -0.00057015       2.71564748       0.00000000
Si      -0.00299736       2.71408083       2.71547519       0.00000000
Si      -0.00259011      -2.71635750       2.71595760       0.00000000
