10
Lattice="16.28999089631971 0.0 0.0 0.0 16.28999089631971 0.0 0.0 0.0 34.45770212530097" Properties=species:S:1:pos:R:3:initial_magmoms:R:1 pbc="T T T"
Si      -1.33903800      -1.37917656       1.34926100       0.00000000
Si      -1.35834165       1.35550719      -1.35908145       0.00000000
Si       1.35672894      -1.35847197      -1.35846121       0.00000000
Si       1.35220032       1.37852496       1.35332701       0.00000000
Si       2.60322345      -0.02943603       2.71085786       0.00000000
Si      -2.71077003       2.71476108      -0.00010337       0.00000000
Si      -2.71186146      -2.71456560      -0.00034458       0.00000000
Si       2.71422351       2.71461888       0.00189517       0.00000000
Si      -2.71409319      -0.00092853      -2.71619880       0.00000000
Si       0.00118917       2.71415235      -2.71616435       0.00000000
