10
Lattice="16.28999089631971 0.0 0.0 0.0 16.28999089631971 0.0 0.0 0.0 34.45770212530097" Properties=species:S:1:pos:R:3:initial_magmoms:R:1 pbc="T T T"
Si      -1.69792299      -0.19231974      -1.63946393       0.00000000
Si       1.54893465       1.22487768      -1.30849751       0.00000000
Si       1.57695345      -1.54605132       0.87663889       0.00000000
Si      -1.20844107       0.83090403       1.87322511       0.00000000
Si       3.10195809       0.06628401       1.73908120       0.00000000
Si       1.49102370      -0.07187148      -3.33499056       0.00000000
Si      -3.01462740       1.73415195      -1.19382222       0.00000000
Si       0.24715188       2.35159182       2.91505431       0.00000000
Si      -1.03040766      -1.43581689       3.38843449       0.00000000
Si       0.50816655       3.18627513      -2.10323040       0.00000000
