10
Lattice="16.28999089631971 0.0 0.0 0.0 16.28999089631971 0.0 0.0 0.0 34.45770212530097" Properties=species:S:1:pos:R:3:initial_magmoms:R:1 pbc="T T T"
Si       1.45559295       1.52068779       1.04182921       0.00000000
Si       1.20844107      -0.83090403      -1.87322511       0.00000000
Si      -2.22711993       0.52673715      -0.73698174       0.00000000
Si       0.17803341      -2.26672092       1.51520938       0.00000000
Si      -1.80618633       0.90324792      -3.06704732       0.00000000
Si      -0.48948192      -1.02322377      -3.51268903       0.00000000
Si      -2.56523517       2.74483242      -0.12728682       0.00000000
Si       2.78539452      -2.37695535      -0.99658622       0.00000000
Si      -0.54371133       3.68885977      -1.01650278       0.00000000
Si       3.39525954       0.44577585       1.84169629       0.00000000
