10
Lattice="16.28999089631971 0.0 0.0 0.0 16.28999089631971 0.0 0.0 0.0 34.45770212530097" Properties=species:S:1:pos:R:3:initial_magmoms:R:1 pbc="T T T"
Si       1.21942053       1.76777451      -1.01386435       0.00000000
Si       1.37391489      -1.29034719       1.55590051       0.00000000
Si      -1.34962650       1.40608764       1.54169359       0.00000000
Si      -0.91145808      -1.92612960      -1.32314002       0.00000000
Si       1.48133115      -1.02327264      -2.80520107       0.00000000
Si      -0.32645160       3.10927230      -2.15208942       0.00000000
Si       2.68596036      -2.74764082       0.18508620       0.00000000
Si      -2.72223819      -2.71766070       0.13232454       0.00000000
Si       0.01778868      -2.65889615       2.93740015       0.00000000
Si       2.50745454       1.14034887      -2.84913466       0.00000000
