10
Lattice="16.28999089631971 0.0 0.0 0.0 16.28999089631971 0.0 0.0 0.0 34.45770212530097" Properties=species:S:1:pos:R:3:initial_magmoms:R:1 pbc="T T T"
Si       0.42464772       1.45650519       1.72161113       0.00000000
Si      -2.19028824      -0.76511591      -0.25278184       0.00000000
Si       0.40474134       1.31167080      -1.96967227       0.00000000
Si       1.15756740      -1.98346130       0.83356674       0.00000000
Si      -0.43189677      -0.48284279      -3.29326226       0.00000000
Si      -1.51138620      -2.22100208      -2.15543385       0.00000000
Si       1.73972313       0.38776716       3.34474210       0.00000000
Si      -1.40015808       2.94374961      -1.99399942       0.00000000
Si      -2.99178882      -1.91300705       1.75920451       0.00000000
Si       2.28077919       3.10826232       0.94572662       0.00000000
