10
Lattice="16.28999089631971 0.0 0.0 0.0 16.28999089631971 0.0 0.0 0.0 34.45770212530097" Properties=species:S:1:pos:R:3:initial_magmoms:R:1 pbc="T T T"
Si      -1.62929322       1.28036956      -1.12159883       0.00000000
Si      -0.08850357      -2.35882362      -0.02057126       0.00000000
Si      -0.32171121       0.80647717       2.21177222       0.00000000
Si       1.93727196       0.17383711      -1.36493926       0.00000000
Si       1.68174702      -2.53513029       1.62699023       0.00000000
Si      -1.15859367       0.41688553      -3.23971496       0.00000000
Si       3.31284843       1.65953560      -0.25598641       0.00000000
Si       0.84688452      -2.92877814      -2.18251761       0.00000000
Si       1.14332994       0.90483457      -3.50648664       0.00000000
Si       0.19202652       3.14195818       2.13823944       0.00000000
