10
Lattice="16.28999089631971 0.0 0.0 0.0 16.28999089631971 0.0 0.0 0.0 34.45770212530097" Properties=species:S:1:pos:R:3:initial_magmoms:R:1 pbc="T T T"
Si       0.32171121      -0.80647717      -2.21177222       0.00000000
Si       0.51373773       2.33548101      -0.07353278       0.00000000
Si       1.44269127      -0.64702740       1.81867853       0.00000000
Si      -2.34906687      -0.26038588       0.67878265       0.00000000
Si      -1.30758201       0.47389239      -3.33337105       0.00000000
Si      -2.05814376      -0.20009984       3.00478222       0.00000000
Si       0.52885485       2.79332775       2.32596511       0.00000000
Si      -0.11767896      -1.64427092       3.30676969       0.00000000
Si       3.24962694      -1.73049389       0.71265459       0.00000000
Si       0.23320764      -3.16530080      -2.23234348       0.00000000
