10
Lattice="16.28999089631971 0.0 0.0 0.0 16.28999089631971 0.0 0.0 0.0 34.45770212530097" Properties=species:S:1:pos:R:3:initial_magmoms:R:1 pbc="T T T"
Si       0.29092311       0.06028603       2.32599957       0.00000000
Si      -1.48877568      -1.81245865      -0.19906226       0.00000000
Si      -1.40745600       1.45033780      -1.24540542       0.00000000
Si       2.34906687       0.26038588      -0.67878265       0.00000000
Si      -1.12241358       0.23009136      -3.23192752       0.00000000
Si      -1.40613651      -2.00414308      -2.50411153       0.00000000
Si       0.80544276       2.37171649       2.54611549       0.00000000
Si       2.23138791      -1.38388504       2.62798704       0.00000000
Si      -0.69294402       3.62752888      -0.87291746       0.00000000
Si      -0.44800758      -3.77385610       0.59567063       0.00000000
