10
Lattice="16.28999089631971 0.0 0.0 0.0 16.28999089631971 0.0 0.0 0.0 34.45770212530097" Properties=species:S:1:pos:R:3:initial_magmoms:R:1 pbc="T T T"
Si       1.34501643       1.35278676       1.37078673       0.00000000
Si      -1.36721970      -1.36418976       1.36561808       0.00000000
Si       1.46465019      -1.16820477      -1.45660369       0.00000000
Si      -1.31818680       1.45870434      -1.34541551       0.00000000
Si      -0.16400772      -2.36734425      -2.58461269       0.00000000
Si       2.71902906       2.69246007       0.01378309       0.00000000
Si       2.70471015      -2.72153772      -0.01931355       0.00000000
Si       2.70418887      -0.00545715       2.72731831       0.00000000
Si      -0.00923643       2.70901071       2.72769735       0.00000000
Si      -2.73184929       2.71388142       0.01042001       0.00000000
