10
Lattice="16.28999089631971 0.0 0.0 0.0 16.28999089631971 0.0 0.0 0.0 34.45770212530097" Properties=species:S:1:pos:R:3:initial_magmoms:R:1 pbc="T T T"
Si       1.33315731       1.37715660       1.44646623       0.00000000
Si      -1.15654113       1.57159404      -1.42665304       0.00000000
Si       1.58131917      -1.14355800      -1.43585325       0.00000000
Si      -0.90446967      -1.93611537       1.28513518       0.00000000
Si      -2.49471576       0.21890502      -2.82060570       0.00000000
Si       0.22103901      -2.50056387      -2.82429268       0.00000000
Si      -2.62070262      -2.76141564      -0.09189874       0.00000000
Si       2.91706659      -2.53346967       0.11219434       0.00000000
Si      -2.61562014       2.93974227       0.13031910       0.00000000
Si       0.99588915      -3.49379775       1.63198660       0.00000000
