10
Lattice="16.28999089631971 0.0 0.0 0.0 16.28999089631971 0.0 0.0 0.0 34.45770212530097" Properties=species:S:1:pos:R:3:initial_magmoms:R:1 pbc="T T T"
Si      -1.41366249       1.25517708       1.35583553       0.00000000
Si       1.10472264       1.70427609      -1.24041664       0.00000000
Si       1.31818680      -1.45870434       1.34541551       0.00000000
Si      -1.83352095      -0.96909210      -1.29395911       0.00000000
Si      -0.39169305      -2.48455080      -2.37742224       0.00000000
Si       2.15642133       0.26943660      -2.80841942       0.00000000
Si      -2.69016318       2.50453863      -0.23798225       0.00000000
Si      -0.75144141       3.34785564      -1.35292347       0.00000000
Si      -0.05129721       2.60674209       2.71365238       0.00000000
Si       2.66320323      -0.10591758       2.71620225       0.00000000
