10
Lattice="16.28999089631971 0.0 0.0 0.0 16.28999089631971 0.0 0.0 0.0 34.45770212530097" Properties=species:S:1:pos:R:3:initial_magmoms:R:1 pbc="T T T"
Si      -1.36036161       1.35242838      -1.35983952       0.00000000
Si       1.35723393      -1.36155078      -1.36059759       0.00000000
Si       1.33817463       1.35268902       1.39395266       0.00000000
Si      -1.35334062      -1.36394541       1.38109993       0.00000000
Si       2.49471576      -0.21890502       2.82060570       0.00000000
Si      -2.71322982       2.71259451      -0.00168843       0.00000000
Si       2.71749780       2.71140534       0.00279108       0.00000000
Si      -0.00097740       2.71166598      -2.71733591       0.00000000
Si       2.71461447      -0.00350235      -2.71757711       0.00000000
Si      -2.71583622      -0.00337203      -2.71795615       0.00000000
