10
Lattice="16.28999089631971 0.0 0.0 0.0 16.28999089631971 0.0 0.0 0.0 34.45770212530097" Properties=species:S:1:pos:R:3:initial_magmoms:R:1 pbc="T T T"
Si      -1.33817463      -1.35268902      -1.39395266       0.00000000
Si       1.37932317       1.35871632      -1.39116159       0.00000000
Si       1.15654113      -1.57159404       1.42665304       0.00000000
Si      -1.45907901       1.36814823       1.55697214       0.00000000
Si      -2.67858099       2.69529453      -0.04603552       0.00000000
Si       2.48969844      -0.19443744       2.87311927       0.00000000
Si      -2.69151525      -2.71663443      -0.01285273       0.00000000
Si       2.73344571       2.70917361      -0.02136379       0.00000000
Si      -2.69853624      -0.00026064      -2.75379218       0.00000000
Si       2.73786030      -2.71515204      -0.00920021       0.00000000
