10
Lattice="16.28999089631971 0.0 0.0 0.0 16.28999089631971 0.0 0.0 0.0 34.45770212530097" Properties=species:S:1:pos:R:3:initial_magmoms:R:1 pbc="T T T"
Si      -1.57328820       1.25147925      -1.17686902       0.00000000
Si       0.56369916      -2.09885247      -0.93108209       0.00000000
Si       2.17696302       0.93071286      -0.51893328       0.00000000
Si      -1.50816078      -0.12729006       2.04589275       0.00000000
Si       2.72277576       0.29238921       1.77446928       0.00000000
Si      -0.34028181       3.25005048      -0.57813165       0.00000000
Si      -1.51731576      -3.12158754      -0.34709263       0.00000000
Si      -0.18925722      -1.75093065       3.30046393       0.00000000
Si      -1.45888353       2.19520782       2.69941789       0.00000000
Si       0.41855526       3.30353055       1.83766474       0.00000000
