10
Lattice="16.28999089631971 0.0 0.0 0.0 16.28999089631971 0.0 0.0 0.0 34.45770212530097" Properties=species:S:1:pos:R:3:initial_magmoms:R:1 pbc="T T T"
Si      -1.61213985      -1.15126317      -1.21394552       0.00000000
Si      -0.09609471       1.08411579      -2.06467221       0.00000000
Si      -1.05169869       1.43483949       1.56800279       0.00000000
Si       1.91640447      -1.33664337       1.06474359       0.00000000
Si       1.12824540       3.28704507      -0.71678952       0.00000000
Si      -2.15642133      -0.26943660       2.80841942       0.00000000
Si       0.68613480       2.39912604       2.80533890       0.00000000
Si      -2.54811438      -2.75398740       0.43099718       0.00000000
Si      -0.72503532      -3.22377471      -1.89159107       0.00000000
Si       0.62641566      -2.89634571       2.69723125       0.00000000
