10
Lattice="16.28999089631971 0.0 0.0 0.0 16.28999089631971 0.0 0.0 0.0 34.45770212530097" Properties=species:S:1:pos:R:3:initial_magmoms:R:1 pbc="T T T"
Si       1.35524298      -1.35499885      -1.35608362       0.00000000
Si      -1.35784904      -1.35639979       1.35680724       0.00000000
Si       1.35699090       1.35865193       1.35684169       0.00000000
Si      -1.35472136       1.35659287      -1.36135566       0.00000000
Si       0.02132752       2.71211635      -2.70696069       0.00000000
Si       0.00878422      -2.69814193      -2.72316615       0.00000000
Si       2.71402283      -2.71206988      -0.00192963       0.00000000
Si      -0.00101129      -2.71353598       2.71395905       0.00000000
Si       2.71429976       0.00155538       2.71395905       0.00000000
Si      -2.71674455      -2.71206988      -0.00017229       0.00000000
