10
Lattice="16.28999089631971 0.0 0.0 0.0 16.28999089631971 0.0 0.0 0.0 34.45770212530097" Properties=species:S:1:pos:R:3:initial_magmoms:R:1 pbc="T T T"
Si       1.57328820      -1.25147925       1.17686902       0.00000000
Si       0.39607506       0.06465501      -2.31138949       0.00000000
Si       1.23300639       1.99857123       0.59873737       0.00000000
Si      -2.44234341      -0.09531279       0.71044930       0.00000000
Si      -1.43594721       1.76103045      -2.39026322       0.00000000
Si       0.06512742      -1.37876931       3.22276177       0.00000000
Si      -2.21328972      -1.74822651       2.41300531       0.00000000
Si       3.75025122      -0.32076639       0.65793573       0.00000000
Si      -0.42717267      -1.85080464      -3.38019909       0.00000000
Si      -2.11484925       3.21691662      -0.48761122       0.00000000
