10
Lattice="16.28999089631971 0.0 0.0 0.0 16.28999089631971 0.0 0.0 0.0 34.45770212530097" Properties=species:S:1:pos:R:3:initial_magmoms:R:1 pbc="T T T"
Si       1.87743879       1.10832273      -0.86175315       0.00000000
Si       0.48321027       0.01448181       2.33371810       0.00000000
Si      -0.04927725      -2.32249788      -0.65352514       0.00000000
Si      -1.93608279       1.47461967      -0.32503969       0.00000000
Si      -1.21756347       1.55113380       2.85978413       0.00000000
Si       1.11860172       1.05484266      -3.27754954       0.00000000
Si      -3.13657434       0.88868466       1.63412298       0.00000000
Si       3.70623564       0.08040744       0.29082317       0.00000000
Si       2.77084755       0.65036196       2.45276952       0.00000000
Si       1.45888353      -2.19520782      -2.69941789       0.00000000
