10
Lattice="16.28999089631971 0.0 0.0 0.0 16.28999089631971 0.0 0.0 0.0 34.45770212530097" Properties=species:S:1:pos:R:3:initial_magmoms:R:1 pbc="T T T"
Si       1.56037023       0.99724352      -1.48809116       0.00000000
Si       1.35883035      -0.21857922       1.96746698       0.00000000
Si      -0.51326532      -2.20317363      -0.88863018       0.00000000
Si      -1.94046480       1.44417107      -0.30198747       0.00000000
Si       0.11767896       1.64427092      -3.30676969       0.00000000
Si      -2.23138791       1.38388504      -2.62798704       0.00000000
Si       2.33513892       2.91479318      -0.37090291       0.00000000
Si      -0.08133597      -1.14249915       3.62391856       0.00000000
Si      -1.12637205      -3.54856473       1.01526230       0.00000000
Si      -1.42594515       3.75560153      -0.08187155       0.00000000
