10
Lattice="16.28999089631971 0.0 0.0 0.0 16.28999089631971 0.0 0.0 0.0 34.45770212530097" Properties=species:S:1:pos:R:3:initial_magmoms:R:1 pbc="T T T"
Si      -1.93966659       1.07491194      -0.79986709       0.00000000
Si       1.96017570       1.19566971       0.63281605       0.00000000
Si      -0.14462262      -0.53919900       2.40925122       0.00000000
Si       0.91513962      -1.21039587      -1.97584020       0.00000000
Si       1.71154143      -2.18277855       2.52175806       0.00000000
Si       2.66714541      -2.53350225      -1.11091694       0.00000000
Si      -3.39525954      -0.44577585      -1.84169629       0.00000000
Si       3.89148552      -0.33057297       0.23696575       0.00000000
Si       0.46276632       1.33946154       3.75257132       0.00000000
Si       1.53653796       2.91854118       2.30673770       0.00000000
