10
Lattice="16.28999089631971 0.0 0.0 0.0 16.28999089631971 0.0 0.0 0.0 34.45770212530097" Properties=species:S:1:pos:R:3:initial_magmoms:R:1 pbc="T T T"
Si      -1.41920109       1.19017998      -1.38675100       0.00000000
Si       1.33479350       1.36151820       1.35301344       0.00000000
Si      -1.37604888      -1.35552348       1.34560503       0.00000000
Si       1.42288493      -1.26139334      -1.40271526       0.00000000
Si      -0.41704029      -2.15482165      -2.59683588       0.00000000
Si      -2.32671699      -0.74051082      -2.81990073       0.00000000
Si      -0.02172581       2.56002237      -2.72079805       0.00000000
Si       2.67384779       2.71388142      -0.01916883       0.00000000
Si       2.69152244       0.00451233       2.70613370       0.00000000
Si       2.68683092      -2.71984307      -0.01929288       0.00000000
