10
Lattice="16.28999089631971 0.0 0.0 0.0 16.28999089631971 0.0 0.0 0.0 34.45770212530097" Properties=species:S:1:pos:R:3:initial_magmoms:R:1 pbc="T T T"
Si       1.35472136      -1.35659287       1.36135566       0.00000000
Si       1.37604888       1.35552348      -1.34560503       0.00000000
Si      -1.35982404       1.36117611       1.35966723       0.00000000
Si      -1.36260963      -1.37903353      -1.36886055       0.00000000
Si      -0.04315221       2.54570346      -2.73235603       0.00000000
Si       2.70996435      -2.71159172       0.00527203       0.00000000
Si       2.71084238       2.71704168       0.00740841       0.00000000
Si       2.71171226       0.00205906       2.71819735       0.00000000
Si      -2.71871955      -2.71167317       0.00578890       0.00000000
Si      -0.00312768      -2.71299266       2.71816289       0.00000000
