10
Lattice="16.28999089631971 0.0 0.0 0.0 16.28999089631971 0.0 0.0 0.0 34.45770212530097" Properties=species:S:1:pos:R:3:initial_magmoms:R:1 pbc="T T T"
Si      -1.35348723       1.35423657       1.35949494       0.00000000
Si       1.36153449      -1.35827649       1.35870241       0.00000000
Si      -1.35420399      -1.34905635      -1.38263675       0.00000000
Si       1.36001952       1.35487188      -1.38710247       0.00000000
Si       2.67820632      -0.17374914      -2.73332085       0.00000000
Si      -2.71191033       2.71221984      -0.00217084       0.00000000
Si      -2.71033020      -2.71760531      -0.00113710       0.00000000
Si      -2.71210581      -0.00241092       2.71699133       0.00000000
Si       2.71715571       2.71251306      -0.00148168       0.00000000
Si       0.00288333       2.71280628       2.71702579       0.00000000
