10
Lattice="16.28999089631971 0.0 0.0 0.0 16.28999089631971 0.0 0.0 0.0 34.45770212530097" Properties=species:S:1:pos:R:3:initial_magmoms:R:1 pbc="T T T"
Si      -0.05597244       2.33579215      -0.25729581       0.00000000
Si      -2.30192361      -0.48794903       0.26677168       0.00000000
Si       0.79394202      -0.73099746       2.14154738       0.00000000
Si       0.93379167      -1.54656187      -1.68932425       0.00000000
Si      -2.12524227      -2.80569742       0.17139271       0.00000000
Si      -1.76086755       2.23254613      -2.13224380       0.00000000
Si      -2.77262316       0.37553500       2.38488781       0.00000000
Si       2.38247766      -0.06487004      -2.81305946       0.00000000
Si       2.18965293       3.04821901      -0.06167932       0.00000000
Si      -1.14332994      -0.90483457       3.50648664       0.00000000
