10
Lattice="16.28999089631971 0.0 0.0 0.0 16.28999089631971 0.0 0.0 0.0 34.45770212530097" Properties=species:S:1:pos:R:3:initial_magmoms:R:1 pbc="T T T"
Si      -2.27499624      -0.43377012       0.49243530       0.00000000
Si       0.31065030      -1.77912864      -1.54952927       0.00000000
Si      -0.04254948       2.32451784      -0.74470027       0.00000000
Si       1.45290510      -0.59572530       1.88339014       0.00000000
Si      -0.53268300       1.62427590       2.85323716       0.00000000
Si      -1.24217766       3.15933147       1.19878413       0.00000000
Si      -2.25952074       0.09045837       2.83938516       0.00000000
Si       0.55527723      -3.69172125      -0.12504707       0.00000000
Si      -0.78239241       2.24116191      -3.03152141       0.00000000
Si       2.16031464      -2.89984806       1.35177641       0.00000000
