10
Lattice="16.28999089631971 0.0 0.0 0.0 16.28999089631971 0.0 0.0 0.0 34.45770212530097" Properties=species:S:1:pos:R:3:initial_magmoms:R:1 pbc="T T T"
Si      -0.08123823      -1.78570980      -1.49070994       0.00000000
Si      -0.10189395      -1.13515236       2.03310893       0.00000000
Si       1.88420633       1.37020077       0.17952473       0.00000000
Si      -1.47269745       1.73700270      -0.54598260       0.00000000
Si      -2.02888692      -2.73430908      -0.57816611       0.00000000
Si      -0.13735728      -0.52587378      -3.46258751       0.00000000
Si      -0.84476682       1.77824898      -2.93097378       0.00000000
Si       3.40541540       0.17572023      -1.09730614       0.00000000
Si      -1.22497542      -3.12132690       1.60583319       0.00000000
Si      -0.94877847       0.38506302       3.58098424       0.00000000
