10
Lattice="16.28999089631971 0.0 0.0 0.0 16.28999089631971 0.0 0.0 0.0 34.45770212530097" Properties=species:S:1:pos:R:3:initial_magmoms:R:1 pbc="T T T"
Si       1.26849157      -1.36503684      -1.37950798       0.00000000
Si       1.37093938       1.33543791       1.36053212       0.00000000
Si      -1.34545626      -1.37792223       1.36201380       0.00000000
Si      -1.24949187       1.48281354      -1.47901499       0.00000000
Si      -2.68827354       2.67843438       0.00948966       0.00000000
Si       0.01427612       2.69604387       2.72243910       0.00000000
Si      -2.70311373      -0.01948284       2.72302488       0.00000000
Si      -2.70259245      -2.73556341      -0.02360698       0.00000000
Si       2.73026006       2.71120986      -0.02710444       0.00000000
Si       2.70864323      -2.74048299      -0.00224320       0.00000000
