10
Lattice="16.28999089631971 0.0 0.0 0.0 16.28999089631971 0.0 0.0 0.0 34.45770212530097" Properties=species:S:1:pos:R:3:initial_magmoms:R:1 pbc="T T T"
Si       1.29420792      -1.33540533       1.48117205       0.00000000
Si       0.88971093       1.92003129      -1.09945837       0.00000000
Si      -0.86315823      -1.83948309      -1.31962877       0.00000000
Si      -1.43190729       1.34029593       1.47412200       0.00000000
Si       2.68003473      -2.52431469       0.00313910       0.00000000
Si      -2.61097749      -2.64753225       0.12766241       0.00000000
Si      -1.01996577       3.33434213      -1.32252322       0.00000000
Si      -2.83281471       2.63243209       0.09049631       0.00000000
Si       2.64066669       0.00773775       2.84825457       0.00000000
Si       0.94097556      -3.53108556      -1.34926241       0.00000000
