10
Lattice="16.28999089631971 0.0 0.0 0.0 16.28999089631971 0.0 0.0 0.0 34.45770212530097" Properties=species:S:1:pos:R:3:initial_magmoms:R:1 pbc="T T T"
Si      -1.91520783      -1.11723336       0.89055981       0.00000000
Si       1.88005985      -1.63002627       0.57089553       0.00000000
Si      -0.65951368       0.44312058      -2.47420223       0.00000000
Si       0.34402688       1.91068668       2.24877981       0.00000000
Si       1.35710198       3.40216650      -0.49167723       0.00000000
Si       3.56012900      -0.13890483       1.43492289       0.00000000
Si       1.14837821      -3.12271155       2.26087447       0.00000000
Si      -3.14832825       0.22791339       2.51169223       0.00000000
Si      -1.21490983      -3.03289826       2.43140574       0.00000000
Si      -2.43305064       2.14654959      -2.48295449       0.00000000
