10
Lattice="16.28999089631971 0.0 0.0 0.0 16.28999089631971 0.0 0.0 0.0 34.45770212530097" Properties=species:S:1:pos:R:3:initial_magmoms:R:1 pbc="T T T"
Si       1.35784904       1.35639979      -1.35680724       0.00000000
Si       1.35683775      -1.35713619       1.35715181       0.00000000
Si      -1.35889551      -1.35567009      -1.35697953       0.00000000
Si      -1.35752715       1.35772901       1.35722073       0.00000000
Si       2.71309203       0.00140094      -2.71289086       0.00000000
Si      -2.71559187       0.00131949      -2.71237400       0.00000000
Si      -0.00141723      -2.71454931       2.71502724       0.00000000
Si      -0.00221544       2.71464772       2.71499278       0.00000000
Si      -2.71485882      -2.71495656       0.00003446       0.00000000
Si       2.71498981      -2.71485882      -0.00006892       0.00000000
