10
Lattice="16.28999089631971 0.0 0.0 0.0 16.28999089631971 0.0 0.0 0.0 34.45770212530097" Properties=species:S:1:pos:R:3:initial_magmoms:R:1 pbc="T T T"
Si       1.34477208       1.34491869       1.35312026       0.00000000
Si      -1.35674523       1.35365013      -1.35708290       0.00000000
Si       1.35692442      -1.36024758      -1.35704844       0.00000000
Si      -1.35708732      -1.36780614       1.37524212       0.00000000
Si       2.64486069      -0.07400547       2.68153434       0.00000000
Si       0.00081450       2.71203074      -2.71485495       0.00000000
Si      -2.71585251       2.71211022       0.00320457       0.00000000
Si      -2.71445157      -0.00296478      -2.71495833       0.00000000
Si      -2.71120986      -2.71826343       0.00544432       0.00000000
Si       2.71517940      -0.00283446      -2.71492387       0.00000000
