10
Lattice="16.28999089631971 0.0 0.0 0.0 16.28999089631971 0.0 0.0 0.0 34.45770212530097" Properties=species:S:1:pos:R:3:initial_magmoms:R:1 pbc="T T T"
Si      -2.08642320      -0.97854030      -0.43675162       0.00000000
Si      -0.99603576       2.12407495       0.38082674       0.00000000
Si       1.73535741       0.29351322      -1.61865146       0.00000000
Si       0.48236319      -1.30880376       1.94255404       0.00000000
Si       0.52295787      -0.77090796      -3.26104429       0.00000000
Si       2.29929670       0.07657929       2.49336072       0.00000000
Si      -3.02181129      -0.40858578       1.72519474       0.00000000
Si      -1.25156070      -0.58489245       3.37275623       0.00000000
Si      -1.61099955      -2.96176635      -1.65252340       0.00000000
Si      -0.85618611       1.30851054      -3.45004490       0.00000000
