10
Lattice="16.28999089631971 0.0 0.0 0.0 16.28999089631971 0.0 0.0 0.0 34.45770212530097" Properties=species:S:1:pos:R:3:initial_magmoms:R:1 pbc="T T T"
Si      -1.74781926      -0.80804916       1.44729119       0.00000000
Si       0.86315823       1.83948309       1.31962877       0.00000000
Si      -1.30570866       0.07986987      -2.07483724       0.00000000
Si       1.80413379      -1.69160247      -0.02963364       0.00000000
Si       2.15736615       0.50407776       2.80080082       0.00000000
Si      -0.55315953      -2.24285607       2.80957031       0.00000000
Si       0.43945533       1.32219414      -3.39787591       0.00000000
Si       0.88562214      -3.43847691       1.32106566       0.00000000
Si       3.54319296      -0.68483160       1.32276787       0.00000000
Si      -3.48565275      -1.77233571       0.20995507       0.00000000
