10
Lattice="16.28999089631971 0.0 0.0 0.0 16.28999089631971 0.0 0.0 0.0 34.45770212530097" Properties=species:S:1:pos:R:3:initial_magmoms:R:1 pbc="T T T"
Si       1.27785276      -1.34395758      -1.61579147       0.00000000
Si       1.14565941       2.18412640      -0.03225243       0.00000000
Si      -1.74516399      -1.24232427       1.32303867       0.00000000
Si      -2.23630749       1.20783834       0.06243739       0.00000000
Si       1.62803889       0.35657181      -3.20098449       0.00000000
Si      -0.43945533      -1.32219414       3.39787591       0.00000000
Si       2.58077161       2.02568970      -1.87491354       0.00000000
Si      -0.22519296      -2.56730400      -2.99534080       0.00000000
Si      -0.45608742       3.95419292      -0.09193320       0.00000000
Si      -1.98814563       3.20111599       1.45115248       0.00000000
