10
Lattice="16.28999089631971 0.0 0.0 0.0 16.28999089631971 0.0 0.0 0.0 34.45770212530097" Properties=species:S:1:pos:R:3:initial_magmoms:R:1 pbc="T T T"
Si       1.29559257      -1.90083123      -0.00482408       0.00000000
Si      -0.81029066       0.36776304      -2.14196088       0.00000000
Si       0.22436217       2.29364829       0.56982734       0.00000000
Si      -0.69301733      -1.36076886       1.82791320       0.00000000
Si       0.42464772       2.15218593       2.89985846       0.00000000
Si      -1.54084960       0.63110718       3.24932867       0.00000000
Si       0.94788252       1.39978341      -3.38719401       0.00000000
Si      -2.47318757       2.23477623      -1.96164362       0.00000000
Si       3.18301713      -1.73727963       1.37927367       0.00000000
Si       2.19374172       3.29279544      -0.32772739       0.00000000
