10
Lattice="16.28999089631971 0.0 0.0 0.0 16.28999089631971 0.0 0.0 0.0 34.45770212530097" Properties=species:S:1:pos:R:3:initial_magmoms:R:1 pbc="T T T"
Si      -1.35633257      -1.35620766      -1.35818555       0.00000000
Si       1.35750109      -1.35770634       1.35728965       0.00000000
Si      -1.35815206       1.35772263       1.35722073       0.00000000
Si       1.35688207       1.35918873      -1.35866795       0.00000000
Si      -0.00189778       2.71625976      -2.71282195       0.00000000
Si       2.71494679      -0.00029322       2.71423471       0.00000000
Si      -2.71498981       2.71485882       0.00006892       0.00000000
Si       2.71442551       2.71549413       0.00037903       0.00000000
Si      -2.71503868      -2.71498914      -0.00006892       0.00000000
Si       0.00124618      -2.71616202       2.71413134       0.00000000
