10
Lattice="16.28999089631971 0.0 0.0 0.0 16.28999089631971 0.0 0.0 0.0 34.45770212530097" Properties=species:S:1:pos:R:3:initial_magmoms:R:1 pbc="T T T"
Si       0.61512669      -1.06342749      -1.91550473       0.00000000
Si      -1.96937955      -0.99914715       0.89755473       0.00000000
Si      -1.04518269       2.19532185      -0.03562928       0.00000000
Si       2.13732945      -0.07916940       1.25526033       0.00000000
Si       1.66332303       2.08516887       2.06918617       0.00000000
Si      -0.69957405       2.35136376       2.33699158       0.00000000
Si       1.50780240       0.72936846      -3.11046405       0.00000000
Si      -1.24585920      -1.89301203      -3.05946662       0.00000000
Si      -1.76909400      -1.14060951       3.22758585       0.00000000
Si      -3.85354301       0.45936171       0.09879029       0.00000000
