10
Lattice="16.28999089631971 0.0 0.0 0.0 16.28999089631971 0.0 0.0 0.0 34.35334932831803" Properties=species:S:1:pos:R:3:initial_magmoms:R:1 pbc="T T T"
Si       1.31838228      -1.37731674       1.41103369       0.00000000
Si      -0.66543021      -1.95147099      -1.17291469       0.00000000
Si      -1.40072823       1.31477893       1.42547241       0.00000000
Si       1.18850211       1.50690319      -1.56351597       0.00000000
Si      -0.76958847      -1.07688792      -3.36394166       0.00000000
Si       2.54378124       2.70511414      -0.03593706       0.00000000
Si      -2.62697427      -2.65756104      -0.03024127       0.00000000
Si      -2.56342698       2.75908291       0.04294858       0.00000000
Si       2.65963572      -0.02285324       2.77972686       0.00000000
Si      -0.05462037       2.69527498       2.78058570       0.00000000
