10
Lattice="16.28999089631971 0.0 0.0 0.0 16.28999089631971 0.0 0.0 0.0 34.35334932831803" Properties=species:S:1:pos:R:3:initial_magmoms:R:1 pbc="T T T"
Si       1.35769005       1.35719374       1.35743900       0.00000000
Si      -1.35739683      -1.35799481       1.35778254       0.00000000
Si      -1.35935163       1.35627662      -1.36004986       0.00000000
Si       1.35913986      -1.35836948      -1.36108046       0.00000000
Si       0.01255959       2.69330280      -2.71186522       0.00000000
Si       2.71513575      -2.71322507       0.00068707       0.00000000
Si       0.00014661       2.71436577       2.71480930       0.00000000
Si       2.71432125       0.00010323       2.71535896       0.00000000
Si      -0.00030951      -2.71514729       2.71529025       0.00000000
Si      -2.71551042       0.00025436       2.71498107       0.00000000
