10
Lattice="16.28999089631971 0.0 0.0 0.0 16.28999089631971 0.0 0.0 0.0 34.35334932831803" Properties=species:S:1:pos:R:3:initial_magmoms:R:1 pbc="T T T"
Si       2.23128365      -0.28187076       0.77999323       0.00000000
Si      -0.96153207       1.29000999       1.78187487       0.00000000
Si      -1.33333391      -2.07215546       0.18093919       0.00000000
Si       0.88326986       1.02500427      -2.07910022       0.00000000
Si      -0.96096909      -0.25651374      -2.58993481       0.00000000
Si       3.00771392      -2.08352588      -0.50520064       0.00000000
Si       0.08762880       0.47536338       3.74901746       0.00000000
Si       2.04655505      -0.71192417       3.10946080       0.00000000
Si       1.12892306       3.33240132      -1.53621393       0.00000000
Si      -0.62480295      -3.23228039       2.18415282       0.00000000
