10
Lattice="16.28999089631971 0.0 0.0 0.0 16.28999089631971 0.0 0.0 0.0 34.35334932831803" Properties=species:S:1:pos:R:3:initial_magmoms:R:1 pbc="T T T"
Si       1.25776719      -1.46933424       1.30972218       0.00000000
Si       1.36190916       1.34955971      -1.37399733       0.00000000
Si      -1.35345465      -1.36631199      -1.37276061       0.00000000
Si      -1.37404521       1.33302536       1.47238538       0.00000000
Si      -0.77827104      -2.06530389       2.90014572       0.00000000
Si      -2.50707987      -0.23157701       2.84023345       0.00000000
Si       2.71086777       2.70795023       0.00707679       0.00000000
Si      -2.72020194       2.71140371       0.02346335       0.00000000
Si       0.00392589       2.70496916      -2.73174551       0.00000000
Si      -2.71173114      -0.00825577      -2.73109280       0.00000000
