10
Lattice="16.28999089631971 0.0 0.0 0.0 16.28999089631971 0.0 0.0 0.0 34.35334932831803" Properties=species:S:1:pos:R:3:initial_magmoms:R:1 pbc="T T T"
Si      -1.83832650      -1.41991133       0.17375934       0.00000000
Si      -0.72306423       1.77023430       1.43356607       0.00000000
Si       1.66718376      -1.35446952       1.09982309       0.00000000
Si       0.58212315       0.27921060      -2.33877733       0.00000000
Si      -1.06189623      -3.22156646      -1.11143453       0.00000000
Si       1.20190878       3.01835781       1.69784653       0.00000000
Si      -2.02305510      -1.84996475       2.50322690       0.00000000
Si      -2.36687184       2.91159315       0.12319118       0.00000000
Si       2.02916385       3.14519175      -0.51265532       0.00000000
Si       1.78676865      -0.56162707       3.29057176       0.00000000
