10
Lattice="16.28999089631971 0.0 0.0 0.0 16.28999089631971 0.0 0.0 0.0 34.35334932831803" Properties=species:S:1:pos:R:3:initial_magmoms:R:1 pbc="T T T"
Si      -0.11958489      -0.79284244      -2.19074866       0.00000000
Si       1.53326367      -0.90136317       1.52154505       0.00000000
Si      -2.16510390      -0.51921280       0.73687975       0.00000000
Si       0.43427511       2.32181044       0.12185140       0.00000000
Si      -2.90740662       1.70956708       0.46397660       0.00000000
Si       1.99047510       0.05959371      -2.76733560       0.00000000
Si      -1.19741274       2.71343833       1.77971061       0.00000000
Si       1.41237558      -3.22876989       0.96024536       0.00000000
Si      -1.78676865       0.56162707      -3.29057176       0.00000000
Si       3.69294300      -0.36094079       0.84918092       0.00000000
