10
Lattice="16.28999089631971 0.0 0.0 0.0 16.28999089631971 0.0 0.0 0.0 34.35334932831803" Properties=species:S:1:pos:R:3:initial_magmoms:R:1 pbc="T T T"
Si       1.35386190      -1.35327546       1.35795430       0.00000000
Si      -1.34853507      -1.35887922      -1.36971690       0.00000000
Si      -1.35873261       1.36523232       1.35520604       0.00000000
Si       1.34542368       1.36757808      -1.36943520       0.00000000
Si      -0.37033686       2.36169162      -2.72916214       0.00000000
Si      -2.51586995       0.15503193      -2.77534337       0.00000000
Si       0.20435805      -2.64432312      -2.73798065       0.00000000
Si       2.71316466      -2.70813105      -0.00034353       0.00000000
Si      -0.00302994      -2.70938538       2.71453447       0.00000000
Si       2.71171485       0.00461007       2.71446577       0.00000000
