10
Lattice="16.28999089631971 0.0 0.0 0.0 16.28999089631971 0.0 0.0 0.0 34.35334932831803" Properties=species:S:1:pos:R:3:initial_magmoms:R:1 pbc="T T T"
Si       0.47640105       0.74341044       2.16024287       0.00000000
Si      -0.97063965      -2.12257071       0.33412086       0.00000000
Si      -0.97956657       1.15483068      -1.82883593       0.00000000
Si       2.30790204       0.29854683      -0.73643316       0.00000000
Si       1.24170525       2.93099454       1.67184103       0.00000000
Si       2.37096063      -0.55693881       2.69052147       0.00000000
Si       0.07977213      -0.05934447      -3.67234074       0.00000000
Si      -3.34928916       0.67119687      -1.44878461       0.00000000
Si       3.51789066      -1.09257030       0.68352897       0.00000000
Si       0.69284628      -3.69441073      -0.18901223       0.00000000
