10
Lattice="16.28999089631971 0.0 0.0 0.0 16.28999089631971 0.0 0.0 0.0 34.35334932831803" Properties=species:S:1:pos:R:3:initial_magmoms:R:1 pbc="T T T"
Si       2.16347490       0.47214936      -0.76848485       0.00000000
Si      -1.36945143       1.65705138      -0.97116973       0.00000000
Si       0.28222425       0.35275995       2.32507034       0.00000000
Si      -1.23572682      -2.00192697      -0.50489146       0.00000000
Si       1.62973305       1.18646586      -2.91890266       0.00000000
Si      -2.69760771      -1.90400778       1.51000231       0.00000000
Si      -2.22532803      -1.33330392      -2.60876045       0.00000000
Si      -1.25885862      -1.11035898       3.44426873       0.00000000
Si      -3.24083034       0.65469510      -1.96291712       0.00000000
Si      -0.46266858       2.30324310      -3.06985136       0.00000000
