10
Lattice="16.28999089631971 0.0 0.0 0.0 16.28999089631971 0.0 0.0 0.0 34.35334932831803" Properties=species:S:1:pos:R:3:initial_magmoms:R:1 pbc="T T T"
Si       0.47666169       1.74700476      -1.46355656       0.00000000
Si       1.12651866      -0.05188365       2.14233622       0.00000000
Si       0.61058178      -2.18787732      -0.84399356       0.00000000
Si      -2.53283436       0.53737452       0.47479791       0.00000000
Si      -1.42081380       0.92207916      -2.66619928       0.00000000
Si      -0.63058590      -0.91427625       3.40281937       0.00000000
Si      -1.92280644      -2.29736241       2.05556816       0.00000000
Si      -0.93050109      -3.65099625       0.27520484       0.00000000
Si      -3.42604764       0.01723482      -1.69547615       0.00000000
Si       3.06120051      -2.29568454      -0.16661384       0.00000000
