10
Lattice="16.28999089631971 0.0 0.0 0.0 16.28999089631971 0.0 0.0 0.0 34.35334932831803" Properties=species:S:1:pos:R:3:initial_magmoms:R:1 pbc="T T T"
Si      -1.35830907      -1.34946360       1.37275030       0.00000000
Si       1.35397593       1.36723599       1.37130746       0.00000000
Si      -1.57959243       1.11537630      -1.37255449       0.00000000
Si       1.44272385      -1.25151183      -1.46054033       0.00000000
Si       2.71694394      -2.69130348       0.01133661       0.00000000
Si      -2.72637585      -2.70181053       0.00582290       0.00000000
Si      -2.72494233       2.70762606       0.00859865       0.00000000
Si       2.72303640       2.71753038       0.01483035       0.00000000
Si      -0.00439830      -2.70878265       2.73194133       0.00000000
Si       2.71355562       0.00659745       2.73194133       0.00000000
