10
Lattice="16.28999089631971 0.0 0.0 0.0 16.28999089631971 0.0 0.0 0.0 34.35334932831803" Properties=species:S:1:pos:R:3:initial_magmoms:R:1 pbc="T T T"
Si       1.81882737       0.93625146       1.22129660       0.00000000
Si      -1.18708488       1.47922974      -1.51044891       0.00000000
Si      -1.83008376      -0.82898181       1.36846644       0.00000000
Si       1.50798159      -1.25079507      -1.51797230       0.00000000
Si       0.62406990       1.86750189       3.16367041       0.00000000
Si      -2.73093705      -2.56611483       0.01965013       0.00000000
Si      -2.59744050       2.84584671       0.01398182       0.00000000
Si       2.94272334      -2.48831379      -0.00525607       0.00000000
Si      -2.54620845       0.11171682      -2.90622627       0.00000000
Si       2.79582012       2.70067023      -0.18200415       0.00000000
