10
Lattice="16.28999089631971 0.0 0.0 0.0 16.28999089631971 0.0 0.0 0.0 34.35334932831803" Properties=species:S:1:pos:R:3:initial_magmoms:R:1 pbc="T T T"
Si       2.12154444       0.69475221       0.76171724       0.00000000
Si      -0.79731405       1.07755092      -1.94728634       0.00000000
Si      -1.70266338       0.27218961       1.62244089       0.00000000
Si       0.06693561      -2.37343671      -0.23057981       0.00000000
Si       3.37975146      -0.14823900      -1.17852666       0.00000000
Si      -0.83984724      -3.01962843       1.86810183       0.00000000
Si      -1.21956714      -1.21396338       3.34213616       0.00000000
Si      -3.72169485      -0.60072633       0.74914391       0.00000000
Si      -1.12831056       3.38877612      -1.46166712       0.00000000
Si      -0.85014252      -2.93193936      -2.37632556       0.00000000
