10
Lattice="16.28999089631971 0.0 0.0 0.0 16.28999089631971 0.0 0.0 0.0 34.35334932831803" Properties=species:S:1:pos:R:3:initial_magmoms:R:1 pbc="T T T"
Si       1.35599589      -1.35485559       1.36176753       0.00000000
Si      -1.35913986       1.35836948       1.36108046       0.00000000
Si       1.37253024       1.35957660      -1.36522348       0.00000000
Si      -1.36677987      -1.37267685      -1.36198739       0.00000000
Si      -2.57282631       0.07933230      -2.80649844       0.00000000
Si       2.71213839      -2.71306692       0.00072142       0.00000000
Si      -2.71521720      -2.71073745       0.00422546       0.00000000
Si       2.71378368       2.71404010       0.00346969       0.00000000
Si       2.71381626       0.00063531       2.71910347       0.00000000
Si      -0.00192222      -2.71428867       2.71882865       0.00000000
