10
Lattice="16.28999089631971 0.0 0.0 0.0 16.28999089631971 0.0 0.0 0.0 34.35334932831803" Properties=species:S:1:pos:R:3:initial_magmoms:R:1 pbc="T T T"
Si       1.37191122       1.33702618      -1.35181536       0.00000000
Si       1.35935163      -1.35627662       1.36004986       0.00000000
Si      -1.35521397       1.36014170       1.36083999       0.00000000
Si      -1.34939844      -1.34359824      -1.39008501       0.00000000
Si      -2.71575477       2.71384070       0.00566831       0.00000000
Si      -2.71371200       0.00134555       2.71755757       0.00000000
Si       0.00195480      -2.71427142       2.71783240       0.00000000
Si       2.71849149      -2.71464609      -0.00103060       0.00000000
Si      -2.71526933      -2.71813215       0.00133978       0.00000000
Si       0.00182448       2.71626790       2.71817593       0.00000000
