10
Lattice="16.28999089631971 0.0 0.0 0.0 16.28999089631971 0.0 0.0 0.0 34.35334932831803" Properties=species:S:1:pos:R:3:initial_magmoms:R:1 pbc="T T T"
Si       1.35858600      -1.35729909       1.35417543       0.00000000
Si      -1.35793440      -1.35606105      -1.35743900       0.00000000
Si       1.35669636       1.35918946      -1.35737030       0.00000000
Si      -1.35773892       1.35929075       1.35822913       0.00000000
Si       2.71015101      -0.02340873       2.71274810       0.00000000
Si       2.71365336      -2.71261080      -0.00085883       0.00000000
Si       2.71301805       2.71505497      -0.00058401       0.00000000
Si      -0.00040725      -2.71357191      -2.71498107       0.00000000
Si      -2.71502172       0.00109143      -2.71494671       0.00000000
Si       2.71533123       0.00135207      -2.71470624       0.00000000
