10
Lattice="16.28999089631971 0.0 0.0 0.0 16.28999089631971 0.0 0.0 0.0 34.35334932831803" Properties=species:S:1:pos:R:3:initial_magmoms:R:1 pbc="T T T"
Si       1.35886293       1.35648459       1.35688935       0.00000000
Si      -1.35759231       1.35749457      -1.35795430       0.00000000
Si       1.35785295      -1.35818364      -1.35778254       0.00000000
Si      -1.35902583      -1.35898348       1.35661452       0.00000000
Si       0.00063531      -2.71170737       2.71594296       0.00000000
Si       0.00032580      -2.71394278      -2.71446577       0.00000000
Si      -2.71441899       0.00112401       2.71419094       0.00000000
Si      -2.71450044       2.71461447      -0.00054965       0.00000000
Si      -2.71422351       0.00071676      -2.71508413       0.00000000
Si      -2.71534752      -2.71484898      -0.00017177       0.00000000
