10
Lattice="16.28999089631971 0.0 0.0 0.0 16.28999089631971 0.0 0.0 0.0 34.35334932831803" Properties=species:S:1:pos:R:3:initial_magmoms:R:1 pbc="T T T"
Si       0.98619660      -1.95790554      -0.66549346       0.00000000
Si      -1.97903952      -0.42088962      -1.12476364       0.00000000
Si      -0.44740485       0.36970644       2.26038294       0.00000000
Si       0.84600486       2.18095081      -0.25222243       0.00000000
Si      -0.30092517       2.71658230       1.75477006       0.00000000
Si       3.25400895      -1.59032169      -0.54367641       0.00000000
Si       0.30840228      -2.49282027      -2.87578919       0.00000000
Si      -1.25301051      -0.85970996      -3.50988366       0.00000000
Si      -2.55746484      -0.48272971       2.83696988       0.00000000
Si       1.17151164      -0.70290373       3.60696628       0.00000000
