10
Lattice="16.28999089631971 0.0 0.0 0.0 16.28999089631971 0.0 0.0 0.0 34.35334932831803" Properties=species:S:1:pos:R:3:initial_magmoms:R:1 pbc="T T T"
Si       2.16945333       0.47513043       0.80558649       0.00000000
Si       0.37481661      -0.90603351      -2.18741639       0.00000000
Si      -1.07083944       2.15831097       0.32343696       0.00000000
Si      -1.76262687      -1.47142683       1.17261788       0.00000000
Si      -1.72739160      -2.15310794      -1.93220521       0.00000000
Si       2.39052492      -0.99717606       2.65862819       0.00000000
Si       0.49067109       3.73692600      -0.52282392       0.00000000
Si       0.04334769       0.74494170      -3.84280216       0.00000000
Si      -1.38416130       2.58794343       2.67104624       0.00000000
Si      -0.06776640      -4.10454962       0.36400829       0.00000000
