10
Lattice="16.28999089631971 0.0 0.0 0.0 16.28999089631971 0.0 0.0 0.0 34.35334932831803" Properties=species:S:1:pos:R:3:initial_magmoms:R:1 pbc="T T T"
Si       1.42286634       1.23275064       1.35998115       0.00000000
Si       1.45810161       0.55106952      -1.74484194       0.00000000
Si      -2.41745229      -0.36098314       0.67463145       0.00000000
Si       1.96507899      -1.78589129      -1.44991827       0.00000000
Si      -1.79646120      -1.05399788      -2.54493189       0.00000000
Si      -0.39807873       0.72203307      -3.21932287       0.00000000
Si      -0.45936171       2.22280797       2.47505714       0.00000000
Si       3.11772681      -1.40037215       0.55137156       0.00000000
Si       2.30953104      -0.68993267       2.60030952       0.00000000
Si      -2.31329403      -1.23556622       2.86565842       0.00000000
