10
Lattice="16.28999089631971 0.0 0.0 0.0 16.28999089631971 0.0 0.0 0.0 34.35334932831803" Properties=species:S:1:pos:R:3:initial_magmoms:R:1 pbc="T T T"
Si      -1.32375374      -1.35809730      -1.34890219       0.00000000
Si      -1.35295685       1.35980775       1.35431285       0.00000000
Si       1.36054080      -1.35369900       1.35517168       0.00000000
Si       1.37207412       1.35293337      -1.37174375       0.00000000
Si      -2.60370305      -0.00488700      -2.71069033       0.00000000
Si       0.14094434      -2.49368460      -2.85787047       0.00000000
Si      -2.71237364       0.00221544       2.71185491       0.00000000
Si       0.00204277      -2.71249514       2.71188926       0.00000000
Si      -2.71225961      -2.71468778      -0.00618361       0.00000000
Si      -2.71289492       2.71603170      -0.00663020       0.00000000
