10
Lattice="16.28999089631971 0.0 0.0 0.0 16.28999089631971 0.0 0.0 0.0 34.35334932831803" Properties=species:S:1:pos:R:3:initial_magmoms:R:1 pbc="T T T"
Si      -1.35790182       1.35710361      -1.36063387       0.00000000
Si       1.35946566      -1.35855342      -1.35974068       0.00000000
Si      -1.36485765      -1.35552348       1.37863503       0.00000000
Si       1.36344042       1.37588598       1.38474993       0.00000000
Si       2.71612944       2.71090035      -0.00065271       0.00000000
Si      -2.71381626      -2.71391400      -0.00243909       0.00000000
Si      -2.71301805       2.71515204       0.00151155       0.00000000
Si      -2.71389771      -0.00042354      -2.71717968       0.00000000
Si       0.00076563       2.71446786      -2.71690486       0.00000000
Si       0.00060273      -2.71503801      -2.71663003       0.00000000
