10
Lattice="16.28999089631971 0.0 0.0 0.0 16.28999089631971 0.0 0.0 0.0 34.35334932831803" Properties=species:S:1:pos:R:3:initial_magmoms:R:1 pbc="T T T"
Si      -1.34895861      -1.35839052      -1.38107412       0.00000000
Si       1.36485765       1.35552348      -1.37863503       0.00000000
Si       1.38870621      -1.28027997       1.44572716       0.00000000
Si      -1.27984014       1.38015396       1.51865936       0.00000000
Si      -2.71086777      -2.70795023      -0.00707679       0.00000000
Si      -2.70936909       2.71906164       0.02311982       0.00000000
Si       2.26892007       0.67235346       3.02735625       0.00000000
Si       2.72966643      -2.70464336      -0.00374452       0.00000000
Si      -2.70694188      -0.00298107      -2.73882231       0.00000000
Si       0.00695583       2.71262709      -2.73926890       0.00000000
