10
Lattice="16.28999089631971 0.0 0.0 0.0 16.28999089631971 0.0 0.0 0.0 34.35334932831803" Properties=species:S:1:pos:R:3:initial_magmoms:R:1 pbc="T T T"
Si      -1.52355483      -1.31714424       1.33205186       0.00000000
Si       1.27984014      -1.38015396      -1.51865936       0.00000000
Si      -1.42952895       1.33890768      -1.49553955       0.00000000
Si       1.69927506       1.11718449       1.43988709       0.00000000
Si       2.66854635      -2.66043393      -0.07293220       0.00000000
Si       2.70409113       2.80401399       0.00267956       0.00000000
Si       3.54876021      -0.70780050       1.50869689       0.00000000
Si       2.64469779      -0.02463048      -2.89729439       0.00000000
Si      -2.80507284      -2.75507883      -0.05335078       0.00000000
Si      -0.06832026       2.69052156      -2.89578285       0.00000000
