10
Lattice="16.28999089631971 0.0 0.0 0.0 16.28999089631971 0.0 0.0 0.0 34.35334932831803" Properties=species:S:1:pos:R:3:initial_magmoms:R:1 pbc="T T T"
Si       1.20998862      -1.39111713       1.41996213       0.00000000
Si       0.72422082       2.04968925       0.96598237       0.00000000
Si      -2.30790204      -0.29854683       0.73643316       0.00000000
Si      -1.83150099       0.44486361       2.89667603       0.00000000
Si       0.11865636       3.39622065      -0.86852186       0.00000000
Si       0.06305859      -0.85548564       3.42695463       0.00000000
Si      -3.28746861       0.85628385      -1.09240277       0.00000000
Si       0.99469998       2.07643743      -2.82807236       0.00000000
Si      -2.22812991      -0.35789130      -2.93590758       0.00000000
Si      -1.06619679       2.63244771       2.40827419       0.00000000
