10
Lattice="16.28999089631971 0.0 0.0 0.0 16.28999089631971 0.0 0.0 0.0 34.35334932831803" Properties=species:S:1:pos:R:3:initial_magmoms:R:1 pbc="T T T"
Si      -2.19054888      -0.30998241       0.61928817       0.00000000
Si       1.05199191       1.00564686       1.82694649       0.00000000
Si      -0.52370721       1.48375836      -1.75363640       0.00000000
Si       1.35351981      -1.76283864      -0.83028656       0.00000000
Si       1.52086698       1.51749495      -2.76850362       0.00000000
Si       3.36585609      -0.57695922      -1.11047264       0.00000000
Si      -2.93044068      -1.97701956      -0.85254755       0.00000000
Si       3.12450345       1.72230912      -0.85361250       0.00000000
Si       0.52372350      -2.21809527      -3.00186605       0.00000000
Si      -2.45223144      -1.18368027       2.74016209       0.00000000
