10
Lattice="16.28999089631971 0.0 0.0 0.0 16.28999089631971 0.0 0.0 0.0 34.35334932831803" Properties=species:S:1:pos:R:3:initial_magmoms:R:1 pbc="T T T"
Si       0.53374185      -0.71431650       2.15041781       0.00000000
Si      -0.04248432      -2.03339925      -1.14980724       0.00000000
Si       1.92777489       1.17726201      -0.60152748       0.00000000
Si      -2.09240163       1.11677724      -0.15094870       0.00000000
Si       0.21919824      -1.15970139      -3.27068116       0.00000000
Si      -1.62973305      -1.18646586       2.91890266       0.00000000
Si      -2.99918448       0.47058552       1.94773294       0.00000000
Si       2.21729706      -2.35488240       1.75511360       0.00000000
Si       1.63071045       1.16442549       3.08867701       0.00000000
Si       3.20179950       1.22267853       1.34531226       0.00000000
