10
Lattice="16.28999089631971 0.0 0.0 0.0 16.28999089631971 0.0 0.0 0.0 34.35334932831803" Properties=species:S:1:pos:R:3:initial_magmoms:R:1 pbc="T T T"
Si      -1.33766964      -1.35101115      -1.38574618       0.00000000
Si       1.37370312       1.36656810      -1.38512782       0.00000000
Si       1.43474175      -1.23751872       1.51271623       0.00000000
Si      -1.50798159       1.25079507       1.51797230       0.00000000
Si       0.31084578       2.18704653       2.73926890       0.00000000
Si      -2.69887833      -2.70262503       0.01449712       0.00000000
Si      -2.69506647       2.73002481       0.00752339       0.00000000
Si       2.73878883      -2.69027721      -0.00250780       0.00000000
Si      -2.69578323       0.00687438      -2.74741065       0.00000000
Si       0.01744659      -2.70905958      -2.74789160       0.00000000
