10
Lattice="16.28999089631971 0.0 0.0 0.0 16.28999089631971 0.0 0.0 0.0 34.35334932831803" Properties=species:S:1:pos:R:3:initial_magmoms:R:1 pbc="T T T"
Si       0.81116055       2.06166240      -0.72265746       0.00000000
Si       1.55080800      -0.46431387       1.77692799       0.00000000
Si      -2.42766612       0.89878446       1.05914871       0.00000000
Si      -0.24685866      -1.91855475      -2.10307887       0.00000000
Si      -2.99687130      -1.21205745       0.03555574       0.00000000
Si      -1.43171181      -2.68232769       1.17371719       0.00000000
Si       0.35870580      -3.26508615      -0.26857464       0.00000000
Si      -1.33574742       1.18012905       3.18297701       0.00000000
Si       2.10427704      -2.70948312       1.29130877       0.00000000
Si      -0.68465241       2.80430721      -2.33091041       0.00000000
