10
Lattice="16.28999089631971 0.0 0.0 0.0 16.28999089631971 0.0 0.0 0.0 34.35334932831803" Properties=species:S:1:pos:R:3:initial_magmoms:R:1 pbc="T T T"
Si       1.18148112       1.42091154       1.52832781       0.00000000
Si      -1.55263248      -1.26889326       1.43650470       0.00000000
Si       1.19985624       0.66528360      -2.06127082       0.00000000
Si       1.06442118      -1.76640615      -1.39210155       0.00000000
Si       2.46295026      -2.81432556       0.16211355       0.00000000
Si       2.43089154      -0.01032786       2.90820644       0.00000000
Si       3.04922736       2.29449537       0.22942740       0.00000000
Si      -2.47153509      -3.09979152       0.27255108       0.00000000
Si      -0.27231993       2.70014895       2.91187538       0.00000000
Si      -0.27841239      -2.70868491       2.90838164       0.00000000
