10
Lattice="16.28999089631971 0.0 0.0 0.0 16.28999089631971 0.0 0.0 0.0 34.35334932831803" Properties=species:S:1:pos:R:3:initial_magmoms:R:1 pbc="T T T"
Si      -1.54015434       1.79661500      -0.35586654       0.00000000
Si      -0.72355293      -1.84420719      -1.38488735       0.00000000
Si       1.96248888       0.85512726      -1.35637405       0.00000000
Si      -1.90377972      -0.57135546       1.85353600       0.00000000
Si      -1.99733319      -0.38432997      -2.75479662       0.00000000
Si       0.72876573       2.36798838      -2.73322271       0.00000000
Si      -3.46519251       1.06175485       1.21944152       0.00000000
Si      -3.45400128       0.89534727      -1.42683281       0.00000000
Si       1.95727608      -1.43573544       3.02203148       0.00000000
Si      -1.70054568      -3.60862596       0.01841341       0.00000000
