10
Lattice="16.28999089631971 0.0 0.0 0.0 16.28999089631971 0.0 0.0 0.0 34.35334932831803" Properties=species:S:1:pos:R:3:initial_magmoms:R:1 pbc="T T T"
Si       1.35488328      -1.35672894       1.35905361       0.00000000
Si       1.35674034       1.35829278      -1.35699241       0.00000000
Si      -1.35814841      -1.35721764      -1.35754206       0.00000000
Si      -1.35811737       1.35920502       1.36152705       0.00000000
Si       2.71368105      -2.71363218      -0.00010306       0.00000000
Si       2.71454442       0.00065160      -2.71460318       0.00000000
Si      -0.00099206      -2.71427075      -2.71522154       0.00000000
Si      -0.00057178       2.71520091      -2.71494671       0.00000000
Si      -2.71540846       0.00043983      -2.71525589       0.00000000
Si      -2.71708633      -2.71366965      -0.00085883       0.00000000
