10
Lattice="16.28999089631971 0.0 0.0 0.0 16.28999089631971 0.0 0.0 0.0 34.35334932831803" Properties=species:S:1:pos:R:3:initial_magmoms:R:1 pbc="T T T"
Si       1.31323464      -1.30847374       1.47122767       0.00000000
Si       1.80750582       1.06928700      -1.12744767       0.00000000
Si      -1.45898127      -1.32764707      -1.37312960       0.00000000
Si      -1.39958793       1.41556353       1.45101071       0.00000000
Si      -2.34564597       0.59503623      -2.61345797       0.00000000
Si       2.78651853      -2.52237196       0.02392369       0.00000000
Si      -0.04028517      -2.65612915       2.84465473       0.00000000
Si      -2.76079662      -2.75217499       0.07172640       0.00000000
Si       2.67296094       0.05509604       2.84190646       0.00000000
Si       2.78151750       2.76489681       0.13739973       0.00000000
