10
Lattice="16.28999089631971 0.0 0.0 0.0 16.28999089631971 0.0 0.0 0.0 34.35334932831803" Properties=species:S:1:pos:R:3:initial_magmoms:R:1 pbc="T T T"
Si      -2.04473709      -0.37434420       1.09243712       0.00000000
Si       0.46162602      -0.87799516      -2.16529282       0.00000000
Si       1.50712622      -1.39779603       1.25077179       0.00000000
Si       0.56456253       2.37338784       0.13792877       0.00000000
Si      -2.37439782       1.60052508       2.31524527       0.00000000
Si      -1.72859706       3.20432445       0.57102169       0.00000000
Si       1.51277592       0.93589308      -3.29167107       0.00000000
Si       3.35136518      -0.11627802       1.76160638       0.00000000
Si       2.20243799       2.78444970      -1.73628795       0.00000000
Si       2.13900310      -2.71615292      -1.96624940       0.00000000
