10
Lattice="16.28999089631971 0.0 0.0 0.0 16.28999089631971 0.0 0.0 0.0 34.35334932831803" Properties=species:S:1:pos:R:3:initial_magmoms:R:1 pbc="T T T"
Si      -2.30723415      -0.29455578       0.14232601       0.00000000
Si       0.32966073      -1.97486928      -1.22280815       0.00000000
Si       0.82979631       0.45525663       2.17157948       0.00000000
Si       0.64580076       1.60379937      -1.74422358       0.00000000
Si       2.37439782      -1.60052508      -2.31524527       0.00000000
Si       2.93896035       0.77286276      -2.17731650       0.00000000
Si      -0.52372350       2.21809527       3.00186605       0.00000000
Si       2.84213259       1.64113605       1.89139341       0.00000000
Si       0.99714348       3.73559022       0.23336243       0.00000000
Si      -3.51722277       1.09656135      -1.27763613       0.00000000
