10
Lattice="16.28999089631971 0.0 0.0 0.0 16.28999089631971 0.0 0.0 0.0 34.35334932831803" Properties=species:S:1:pos:R:3:initial_magmoms:R:1 pbc="T T T"
Si       0.73787184      -1.36533888      -1.71632864       0.00000000
Si       1.15062786       2.02321637       0.03445643       0.00000000
Si       0.42316533      -1.52428041       1.76620974       0.00000000
Si      -2.32919307       0.16198287       0.42003864       0.00000000
Si      -1.04441706      -3.14101404       0.96824969       0.00000000
Si      -2.24564166       0.81405854       2.68997182       0.00000000
Si       0.68149215       2.77983800       2.21754429       0.00000000
Si      -0.68302341      -3.29451471      -1.37073376       0.00000000
Si      -0.51466626      -0.48470148       3.64269379       0.00000000
Si      -0.24669576      -0.72543510      -3.73060406       0.00000000
