10
Lattice="16.28999089631971 0.0 0.0 0.0 16.28999089631971 0.0 0.0 0.0 34.35334932831803" Properties=species:S:1:pos:R:3:initial_magmoms:R:1 pbc="T T T"
Si       1.35891180      -1.35343836      -1.35774818       0.00000000
Si      -1.35628911       1.35777150      -1.35757642       0.00000000
Si      -1.34282868      -1.36135530       1.36870691       0.00000000
Si       1.36223496       1.35470898       1.36386308       0.00000000
Si      -2.59182925       0.06369390       2.73607404       0.00000000
Si      -2.71381516      -2.71173114       0.00487818       0.00000000
Si       0.00104256      -2.71264338      -2.71364129       0.00000000
Si      -2.71353396       0.00149868      -2.71439706       0.00000000
Si       2.71640637      -2.71322982       0.00821046       0.00000000
Si       2.71616202       0.00193851      -2.71408788       0.00000000
