10
Lattice="16.28999089631971 0.0 0.0 0.0 16.28999089631971 0.0 0.0 0.0 34.35334932831803" Properties=species:S:1:pos:R:3:initial_magmoms:R:1 pbc="T T T"
Si      -0.71583147       0.53265042       2.16804109       0.00000000
Si      -0.86574834      -2.16942075      -0.20533008       0.00000000
Si       2.35881548      -0.03811860      -0.44941077       0.00000000
Si      -1.36643778       1.61487657      -1.17553792       0.00000000
Si      -3.11057550      -1.91816379       0.53958836       0.00000000
Si       0.18122625       3.26028060      -1.73027611       0.00000000
Si       3.18458327       1.93777695       0.53563772       0.00000000
Si      -0.39661263      -2.92604238      -2.38841795       0.00000000
Si       2.60091746      -0.76468518      -2.69021229       0.00000000
Si      -2.61087975      -0.89593371       2.64259852       0.00000000
