10
Lattice="16.28999089631971 0.0 0.0 0.0 16.28999089631971 0.0 0.0 0.0 34.35334932831803" Properties=species:S:1:pos:R:3:initial_magmoms:R:1 pbc="T T T"
Si      -1.39852908       1.04791941      -1.55421510       0.00000000
Si      -1.42125363      -1.26382707       1.36227050       0.00000000
Si       1.35075051       1.49450976       1.32284658       0.00000000
Si       1.03996989      -1.79388738      -1.33026549       0.00000000
Si      -1.43829297      -0.95065182      -3.04477341       0.00000000
Si      -2.46295026       2.81432556      -0.16211355       0.00000000
Si       2.80276603      -2.50313769       0.10179903       0.00000000
Si      -0.03228678      -2.63358801       2.73113200       0.00000000
Si       2.69815436       0.10261071       2.73350925       0.00000000
Si      -2.74136265       0.10564065       2.74626809       0.00000000
