10
Lattice="16.28999089631971 0.0 0.0 0.0 16.28999089631971 0.0 0.0 0.0 34.35334932831803" Properties=species:S:1:pos:R:3:initial_magmoms:R:1 pbc="T T T"
Si       0.90355743      -0.11290599      -2.15886874       0.00000000
Si       1.33188669      -0.31345218       1.90709290       0.00000000
Si      -1.86035058      -1.45692873      -0.03363195       0.00000000
Si      -0.59500854       2.25113139       0.44326151       0.00000000
Si      -0.14817384       0.39387591       3.65179743       0.00000000
Si      -2.65968459       2.56254732      -0.71242016       0.00000000
Si      -2.59999803       1.06904754      -2.53321740       0.00000000
Si      -0.95640219       2.40463206       2.78224496       0.00000000
Si      -0.44062821       1.10548827      -3.62829972       0.00000000
Si      -3.09540951      -1.33880994       1.95195840       0.00000000
