10
Lattice="16.28999089631971 0.0 0.0 0.0 16.28999089631971 0.0 0.0 0.0 34.35334932831803" Properties=species:S:1:pos:R:3:initial_magmoms:R:1 pbc="T T T"
Si      -0.83890242       0.89679708      -2.01411924       0.00000000
Si       0.85429647       1.90475712       1.22073620       0.00000000
Si      -1.86774624      -0.87358383       1.29890042       0.00000000
Si       1.77531678      -1.87932843      -0.31166936       0.00000000
Si      -1.84937112      -1.62921177      -2.29069821       0.00000000
Si       2.10226422       0.43523622       2.67666974       0.00000000
Si      -0.61833582      -2.30482323       2.67877904       0.00000000
Si       1.10829015       1.23782823      -3.20405122       0.00000000
Si       0.35548038      -2.29056948      -2.92706001       0.00000000
Si      -3.04922736      -2.29449537      -0.22942740       0.00000000
