10
Lattice="16.28999089631971 0.0 0.0 0.0 16.28999089631971 0.0 0.0 0.0 34.35334932831803" Properties=species:S:1:pos:R:3:initial_magmoms:R:1 pbc="T T T"
Si      -1.35562122       1.35734796       1.35826348       0.00000000
Si      -1.35650088      -1.35871632      -1.36203548       0.00000000
Si       1.36194215      -1.35762489       1.35984374       0.00000000
Si       1.36409916       1.38134313      -1.36414478       0.00000000
Si      -2.60591130       0.07252308      -2.74191411       0.00000000
Si       2.71308877      -2.71122615       0.00388193       0.00000000
Si       2.71531887       2.71104696      -0.00024047       0.00000000
Si      -2.71067229       2.71710684       0.00065271       0.00000000
Si      -2.71292031       0.00032580       2.71597732       0.00000000
Si      -2.71305063      -2.71591767       0.00340098       0.00000000
