10
Lattice="16.28999089631971 0.0 0.0 0.0 16.28999089631971 0.0 0.0 0.0 34.35334932831803" Properties=species:S:1:pos:R:3:initial_magmoms:R:1 pbc="T T T"
Si       1.34537481       1.33486776       1.37073376       0.00000000
Si       1.35247725      -1.35656604      -1.35682064       0.00000000
Si      -1.36112724       1.35553977      -1.35620228       0.00000000
Si      -1.34193762      -1.36969578       1.37203919       0.00000000
Si      -0.12056229       2.57214213       2.75520886       0.00000000
Si       2.71067229      -2.71397916       0.00917235       0.00000000
Si       2.71120014      -0.00001629      -2.71367564       0.00000000
Si      -0.00296478       2.71492567      -2.71374435       0.00000000
Si      -0.00325800      -2.71500543      -2.71367564       0.00000000
Si       2.71164843       2.71743264       0.00687067       0.00000000
