10
Lattice="16.28999089631971 0.0 0.0 0.0 16.28999089631971 0.0 0.0 0.0 34.35334932831803" Properties=species:S:1:pos:R:3:initial_magmoms:R:1 pbc="T T T"
Si      -2.12322231      -0.93530664       0.49035998       0.00000000
Si       1.19654678      -1.49389074      -1.41772917       0.00000000
Si      -0.31152996       1.98713565      -1.28505646       0.00000000
Si       0.89048212      -0.06312375       2.22853737       0.00000000
Si      -1.28383119      -3.04394940       1.17014444       0.00000000
Si       0.17039340      -3.55969080      -0.80338788       0.00000000
Si       0.87910355       1.47316986      -3.29297649       0.00000000
Si      -1.06018578       0.34018407       3.55107335       0.00000000
Si       0.48904209      -0.83886984      -3.59459907       0.00000000
Si      -3.22730964      -1.04490576      -1.58331240       0.00000000
