10
Lattice="16.28999089631971 0.0 0.0 0.0 16.28999089631971 0.0 0.0 0.0 34.35334932831803" Properties=species:S:1:pos:R:3:initial_magmoms:R:1 pbc="T T T"
Si       0.93783159      -1.03957893      -1.87648405       0.00000000
Si      -1.73097540       1.29876002      -0.95272197       0.00000000
Si      -0.90101619      -1.56245535       1.57822810       0.00000000
Si       1.82400759       1.54888971       0.17863752       0.00000000
Si       0.51466626       0.48470148      -3.64269379       0.00000000
Si      -1.04866875       3.51579644      -0.68023105       0.00000000
Si      -1.81452681       0.64668435      -3.22265515       0.00000000
Si       1.19615841       3.26453948      -1.42514949       0.00000000
Si      -0.52975080      -2.65631256      -2.67444409       0.00000000
Si       3.80578383       0.35495910      -0.40897685       0.00000000
