10
Lattice="16.28999089631971 0.0 0.0 0.0 16.28999089631971 0.0 0.0 0.0 34.35334932831803" Properties=species:S:1:pos:R:3:initial_magmoms:R:1 pbc="T T T"
Si      -1.35488328       1.35672894      -1.35905361       0.00000000
Si       1.35879777      -1.35690324      -1.35915667       0.00000000
Si      -1.34150756      -1.35552837       1.38399416       0.00000000
Si       1.35032697       1.36275624       1.39539948       0.00000000
Si      -2.71299392      -2.71291121       0.00377887       0.00000000
Si      -2.71300066       2.71593396       0.00247344       0.00000000
Si      -2.71303169      -0.00048870      -2.71659568       0.00000000
Si       0.00185706       2.71502172      -2.71604602       0.00000000
Si       2.71722087       2.71443528       0.00580572       0.00000000
Si       0.00167787      -2.71490962      -2.71680180       0.00000000
