10
Lattice="16.28999089631971 0.0 0.0 0.0 16.28999089631971 0.0 0.0 0.0 34.35334932831803" Properties=species:S:1:pos:R:3:initial_magmoms:R:1 pbc="T T T"
Si       1.56025783       1.73838735       0.25493635       0.00000000
Si       0.63842628      -1.90501776       1.29103394       0.00000000
Si      -1.95066790       0.40330782       1.32253598       0.00000000
Si      -0.89048212       0.06312375      -2.22853737       0.00000000
Si      -3.01370443      -0.87218289      -1.73817739       0.00000000
Si      -1.49298406      -2.98216143       1.32549037       0.00000000
Si      -1.36505869       2.22260760       2.64383524       0.00000000
Si       0.93503460      -0.82419255       3.59542355       0.00000000
Si      -2.11786846      -1.30579011       2.92082645       0.00000000
Si      -2.17431331      -2.98082565      -1.05839293       0.00000000
