10
Lattice="16.28999089631971 0.0 0.0 0.0 16.28999089631971 0.0 0.0 0.0 34.35334932831803" Properties=species:S:1:pos:R:3:initial_magmoms:R:1 pbc="T T T"
Si       1.35726550      -1.35757602      -1.35682064       0.00000000
Si      -1.35872289      -1.35654975       1.35685500       0.00000000
Si      -1.35717534       1.35754344      -1.35754206       0.00000000
Si       1.35864852       1.35641943       1.35726724       0.00000000
Si      -2.71120014       0.00001629       2.71367564       0.00000000
Si       2.71433816      -0.00118917      -2.71422529       0.00000000
Si       0.00263282      -2.71533123      -2.71364129       0.00000000
Si      -2.71416492       2.71494196      -0.00006871       0.00000000
Si      -2.71445814      -2.71498914       0.00000000       0.00000000
Si      -2.71493055      -0.00035838      -2.71522154       0.00000000
