10
Lattice="10.86 0.0 0.0 0.0 10.86 0.0 0.0 0.0 10.86" Properties=species:S:1:pos:R:3:initial_magmoms:R:1 pbc="T T T"
Si       1.51860810       1.06033782       1.26936024       0.00000000
Si      -1.40852028      -1.41349416       1.29456630       0.00000000
Si      -1.40852028       1.30150584      -1.42043370       0.00000000
Si       1.30647972      -1.41349416      -1.42043370       0.00000000
Si       0.13293726       2.33873358       2.52803424       0.00000000
Si      -0.18590148       2.60360898      -2.75915676       0.00000000
Si       2.61879126      -0.24266670       2.78051838       0.00000000
Si      -2.76602028      -0.05599416       2.65206630       0.00000000
Si      -0.05102028      -2.77099416       2.65206630       0.00000000
Si      -2.76602028       2.65900584      -0.06293370       0.00000000
