10
Lattice="10.86 0.0 0.0 0.0 10.86 0.0 0.0 0.0 10.86" Properties=species:S:1:pos:R:3:initial_magmoms:R:1 pbc="T T T"
Si      -1.31231154      -1.17082746       1.22904792       0.00000000
Si      -1.10018316       1.30300452      -1.51115814       0.00000000
Si       1.40268846      -1.17082746      -1.48595208       0.00000000
Si       1.40268846       1.54417254       1.22904792       0.00000000
Si      -2.48585400       2.58140028      -0.25248414       0.00000000
Si       0.04518846      -2.52832746       2.58654792       0.00000000
Si      -2.66981154      -2.52832746      -0.12845208       0.00000000
Si      -2.66981154       0.18667254       2.58654792       0.00000000
Si       2.76018846      -2.52832746      -0.12845208       0.00000000
Si       2.76018846       0.18667254       2.58654792       0.00000000
