10
Lattice="10.86 0.0 0.0 0.0 10.86 0.0 0.0 0.0 10.86" Properties=species:S:1:pos:R:3:initial_magmoms:R:1 pbc="T T T"
Si      -1.11600618       1.26002064      -1.51757640       0.00000000
Si       1.59899382       1.26002064       1.19742360       0.00000000
Si       1.59899382      -1.45497936      -1.51757640       0.00000000
Si       0.35557812       2.54155494       2.54754966       0.00000000
Si      -2.39940840       2.81365224      -0.15044358       0.00000000
Si      -2.47350618      -0.09747936      -2.87507640       0.00000000
Si       0.28278354      -2.65310886       2.72698944       0.00000000
Si       0.24149382       2.61752064      -2.87507640       0.00000000
Si       2.95649382      -0.09747936       2.55492360       0.00000000
Si      -2.57847894      -2.95920882      -0.28788774       0.00000000
