10
Lattice="16.28999089631971 0.0 0.0 0.0 16.28999089631971 0.0 0.0 0.0 34.433804113860816" Properties=species:S:1:pos:R:3:initial_magmoms:R:1 pbc="T T T"
Si      -2.18005975       0.54718110      -0.73154658       0.00000000
Si       0.45336699       2.23369850       0.76250258       0.00000000
Si       1.22530122      -0.08840583      -2.10435425       0.00000000
Si       0.34511994      -1.99990701       1.43344563       0.00000000
Si      -0.85594176      -0.49342410       3.05892870       0.00000000
Si       2.92467402       1.47685044      -1.79117862       0.00000000
Si       2.00630898       1.94636082       2.48285083       0.00000000
Si      -1.86730315       1.56584434      -2.86513514       0.00000000
Si       1.61257968       3.30431966      -1.00260963       0.00000000
Si       2.92133457      -2.05995195       1.36275299       0.00000000
