10
Lattice="16.28999089631971 0.0 0.0 0.0 16.28999089631971 0.0 0.0 0.0 34.433804113860816" Properties=species:S:1:pos:R:3:initial_magmoms:R:1 pbc="T T T"
Si       1.35597960      -1.34781831       1.36027376       0.00000000
Si      -1.32893820      -1.35830907      -1.37943618       0.00000000
Si      -1.35780408       1.36839258       1.35707141       0.00000000
Si       1.37112930       1.35868374      -1.37990104       0.00000000
Si      -2.61676044       0.04316850      -2.72163218       0.00000000
Si      -0.10524969       2.65334778      -2.69671242       0.00000000
Si       2.70813105      -2.70507830       0.00292687       0.00000000
Si      -0.00190593      -2.70619091       2.71514141       0.00000000
Si      -2.71440270      -2.71012169      -0.00323678       0.00000000
Si       2.71321353       0.00816129       2.71617442       0.00000000
