10
Lattice="16.28999089631971 0.0 0.0 0.0 16.28999089631971 0.0 0.0 0.0 34.433804113860816" Properties=species:S:1:pos:R:3:initial_magmoms:R:1 pbc="T T T"
Si       1.33812576       1.34012943      -1.38751091       0.00000000
Si      -1.37489229      -1.37259540      -1.38079632       0.00000000
Si       1.37570679      -1.41806079       1.42507821       0.00000000
Si      -1.31908275       1.40734197       1.48795437       0.00000000
Si      -2.13037362      -0.52999515       2.78507650       0.00000000
Si      -0.41300037      -2.40953535       2.68859293       0.00000000
Si       2.69387730       2.69423568      -0.00027547       0.00000000
Si      -2.73392464       2.67685425      -0.02031596       0.00000000
Si       2.69218314      -2.74270495      -0.02672065       0.00000000
Si       2.69814528      -0.01255959      -2.74403138       0.00000000
