10
Lattice="16.28999089631971 0.0 0.0 0.0 16.28999089631971 0.0 0.0 0.0 34.433804113860816" Properties=species:S:1:pos:R:3:initial_magmoms:R:1 pbc="T T T"
Si      -1.72764965       1.33351895       0.81866415       0.00000000
Si      -1.38868733      -1.90818195       0.05712571       0.00000000
Si       1.40117783      -0.84366303       1.72513455       0.00000000
Si       0.45914831      -2.03227917      -1.43740552       0.00000000
Si      -0.44465998      -2.37184422       2.10373444       0.00000000
Si      -2.57213954       1.56501614      -1.41226883       0.00000000
Si       1.79699225      -0.54827646      -2.75057381       0.00000000
Si       2.83244981       1.15533893      -1.45145452       0.00000000
Si       3.38468081      -0.62495349       0.25054050       0.00000000
Si       1.11507656       3.03487913      -1.35497095       0.00000000
