10
Lattice="16.28999089631971 0.0 0.0 0.0 16.28999089631971 0.0 0.0 0.0 34.433804113860816" Properties=species:S:1:pos:R:3:initial_magmoms:R:1 pbc="T T T"
Si      -0.36838206       2.36657699       0.20629304       0.00000000
Si      -1.53710811      -1.45828324       1.13741805       0.00000000
Si      -0.04219110      -1.28363245      -2.03417811       0.00000000
Si       2.02250124       0.15879329       1.29323110       0.00000000
Si      -1.78787637      -0.06163484      -3.08871396       0.00000000
Si      -1.26623799       2.29161041       2.47954519       0.00000000
Si       1.82548998       3.07898756      -0.49663903       0.00000000
Si       1.31002551      -0.80786345       3.29676312       0.00000000
Si      -2.49743619      -2.83078728      -0.54791100       0.00000000
Si      -0.38934729      -2.37311973       2.98358749       0.00000000
