10
Lattice="16.28999089631971 0.0 0.0 0.0 16.28999089631971 0.0 0.0 0.0 34.433804113860816" Properties=species:S:1:pos:R:3:initial_magmoms:R:1 pbc="T T T"
Si      -0.68054733      -2.19612169      -0.37474330       0.00000000
Si       1.10195334      -0.02796993       2.09126939       0.00000000
Si      -1.97910468       1.32488199      -0.32632934       0.00000000
Si       1.98293283       0.83929338      -1.17512309       0.00000000
Si       1.30852683       2.31686154       1.92164838       0.00000000
Si       1.95576111       3.02445027      -0.26848052       0.00000000
Si       2.99103948      -1.40578139       1.53099665       0.00000000
Si      -2.31547689      -1.95275560      -2.04757287       0.00000000
Si       1.14609924      -3.56935796      -0.72187067       0.00000000
Si      -1.50118866       2.84411997      -2.05938367       0.00000000
