10
Lattice="16.28999089631971 0.0 0.0 0.0 16.28999089631971 0.0 0.0 0.0 34.433804113860816" Properties=species:S:1:pos:R:3:initial_magmoms:R:1 pbc="T T T"
Si      -0.35627859      -1.71909252       1.63681321       0.00000000
Si      -0.81655254       0.10765409      -2.27807289       0.00000000
Si       2.32588620      -0.67110795      -0.12430610       0.00000000
Si      -1.21389822       2.12854751       0.37268626       0.00000000
Si       2.74416453       1.20011362       1.45860784       0.00000000
Si      -1.61199324      -0.28462770       3.03586290       0.00000000
Si      -3.01614074       0.95974001       1.56025305       0.00000000
Si      -1.31900130      -3.41994771       0.31734212       0.00000000
Si      -2.71435872       1.69316468      -2.30245203       0.00000000
Si       1.14702777       2.43214424       3.02256455       0.00000000
