10
Lattice="16.28999089631971 0.0 0.0 0.0 16.28999089631971 0.0 0.0 0.0 34.433804113860816" Properties=species:S:1:pos:R:3:initial_magmoms:R:1 pbc="T T T"
Si       1.35575154       1.35547461       1.35924074       0.00000000
Si      -1.35930276      -1.35969372       1.35924074       0.00000000
Si      -1.36432008       1.36058967      -1.35672707       0.00000000
Si       1.35780408      -1.36839258      -1.35707141       0.00000000
Si       2.71311579       2.71194291       0.00148065       0.00000000
Si       2.71378368      -2.71621089       0.00320235       0.00000000
Si       2.71334385      -0.00229689       2.71665649       0.00000000
Si      -2.71733490       2.71305063       0.00244480       0.00000000
Si      -0.00265527       2.71357191       2.71693196       0.00000000
Si      -0.00283446      -2.71730232       2.71600225       0.00000000
