10
Lattice="16.28999089631971 0.0 0.0 0.0 16.28999089631971 0.0 0.0 0.0 34.433804113860816" Properties=species:S:1:pos:R:3:initial_magmoms:R:1 pbc="T T T"
Si      -1.24279668       1.43091360       1.35217492       0.00000000
Si       1.17090891       1.54160415      -1.37140212       0.00000000
Si       1.47774735      -1.30854312       1.32937973       0.00000000
Si      -1.78807185      -0.80119107      -1.36380921       0.00000000
Si      -2.60279991      -2.54606184       0.00228985       0.00000000
Si      -2.59825500       0.06300972       2.71227307       0.00000000
Si       0.12093696      -2.65461840       2.70745233       0.00000000
Si      -2.71107954       2.68741017      -0.05687435       0.00000000
Si       0.11534949       2.78093106       2.71182543       0.00000000
Si       2.76547185       2.73028545      -0.00795766       0.00000000
