10
Lattice="16.28999089631971 0.0 0.0 0.0 16.28999089631971 0.0 0.0 0.0 34.433804113860816" Properties=species:S:1:pos:R:3:initial_magmoms:R:1 pbc="T T T"
Si       1.92966127      -0.74861509      -1.05271085       0.00000000
Si      -0.11213384       1.59615936       1.70574831       0.00000000
Si      -0.62018636      -2.09710455       0.89410866       0.00000000
Si      -0.97789914       1.24074414      -1.83404873       0.00000000
Si      -2.43741798       2.06132031       1.45630969       0.00000000
Si       1.72012300       2.95468020       1.10635874       0.00000000
Si      -2.95289874       1.97138322      -0.81670142       0.00000000
Si      -1.96738632      -3.03675641      -0.72183624       0.00000000
Si      -1.67768496      -0.43759827      -3.37885335       0.00000000
Si      -1.68900651      -1.76011169       2.96733473       0.00000000
