10
Lattice="16.28999089631971 0.0 0.0 0.0 16.28999089631971 0.0 0.0 0.0 34.433804113860816" Properties=species:S:1:pos:R:3:initial_magmoms:R:1 pbc="T T T"
Si       1.34273583       1.35361755      -1.35982612       0.00000000
Si      -1.23711147       1.41149592       1.42669660       0.00000000
Si      -1.36863693      -1.35918873      -1.35875867       0.00000000
Si       1.34099280      -1.29925782       1.44377578       0.00000000
Si      -0.56389464      -1.97809470       2.67950240       0.00000000
Si      -2.45050470      -0.41290263       2.49462720       0.00000000
Si       2.32311690       0.53087481       2.80639104       0.00000000
Si      -2.70884292       2.70596448       0.00919383       0.00000000
Si       2.70528030      -0.00272043      -2.71720743       0.00000000
Si       2.70010008      -2.72445363       0.02613527       0.00000000
