10
Lattice="16.28999089631971 0.0 0.0 0.0 16.28999089631971 0.0 0.0 0.0 34.433804113860816" Properties=species:S:1:pos:R:3:initial_magmoms:R:1 pbc="T T T"
Si      -0.29957310      -2.23041051       0.67745104       0.00000000
Si      -1.63364265       1.51920540       0.76907944       0.00000000
Si       2.03592420       0.66189528       1.03218829       0.00000000
Si       0.24918813       0.55231245      -2.32073639       0.00000000
Si       1.95880734       2.78901090      -0.06477002       0.00000000
Si      -3.38481765       0.71102592      -0.70455046       0.00000000
Si      -0.37418130       3.58365339       0.52012290       0.00000000
Si       2.08738431       1.98013095      -2.24935508       0.00000000
Si      -0.49327749      -2.02857741       3.05531315       0.00000000
Si       1.72555083      -3.32307855       0.11225426       0.00000000
