10
Lattice="16.28999089631971 0.0 0.0 0.0 16.28999089631971 0.0 0.0 0.0 34.433804113860816" Properties=species:S:1:pos:R:3:initial_magmoms:R:1 pbc="T T T"
Si      -1.34988714      -1.32745581       1.37263550       0.00000000
Si       1.34965908      -1.34516304      -1.35772565       0.00000000
Si      -1.36572102       1.36801791      -1.35218181       0.00000000
Si       1.36443411       1.35767376       1.38806185       0.00000000
Si      -2.22847200       0.58997493       2.54510719       0.00000000
Si      -0.30146274       2.42517375       2.71493480       0.00000000
Si       2.70585045      -2.70337437       0.00774761       0.00000000
Si      -0.00633681      -2.70446580      -2.71231783       0.00000000
Si       2.70793557       0.00982287      -2.71279991       0.00000000
Si      -2.72614779      -2.70518256       0.00392546       0.00000000
