10
Lattice="16.28999089631971 0.0 0.0 0.0 16.28999089631971 0.0 0.0 0.0 34.433804113860816" Properties=species:S:1:pos:R:3:initial_magmoms:R:1 pbc="T T T"
Si      -0.02570399       2.30634472      -0.26658666       0.00000000
Si      -1.92459249      -0.35426189      -1.29147498       0.00000000
Si       1.94484355      -0.73941369      -1.08538855       0.00000000
Si      -0.31275660      -1.01866324       2.13358856       0.00000000
Si      -0.85577234      -0.69125475      -3.36470105       0.00000000
Si      -2.30139648       2.69098420       0.50786446       0.00000000
Si       3.09260437      -1.65425017       0.76078089       0.00000000
Si       0.98451547      -2.11191772      -2.77071760       0.00000000
Si      -2.87802990      -2.26302376      -0.21266329       0.00000000
Si       2.21571367       3.01047997       0.25673859       0.00000000
