10
Lattice="16.28999089631971 0.0 0.0 0.0 16.28999089631971 0.0 0.0 0.0 34.433804113860816" Properties=species:S:1:pos:R:3:initial_magmoms:R:1 pbc="T T T"
Si      -0.61035372      -0.10513566       2.21781369       0.00000000
Si      -1.85549616       0.79532667      -1.18152778       0.00000000
Si       0.87858486      -1.91743074      -1.17247169       0.00000000
Si       1.92700926       1.83519882       0.16982762       0.00000000
Si       1.66519638       0.12924486       2.83751921       0.00000000
Si      -1.33141428      -2.37773727       1.87912261       0.00000000
Si      -0.50145507       2.14438302      -2.54799963       0.00000000
Si       2.22847200      -0.58997493      -2.54510719       0.00000000
Si       0.85799430       3.47982160      -1.18166552       0.00000000
Si       3.59290611       0.76769883      -1.15704533       0.00000000
