10
Lattice="16.28999089631971 0.0 0.0 0.0 16.28999089631971 0.0 0.0 0.0 34.433804113860816" Properties=species:S:1:pos:R:3:initial_magmoms:R:1 pbc="T T T"
Si      -0.22294494       1.00958904       2.11695703       0.00000000
Si       1.34289873      -1.85446989       0.57139486       0.00000000
Si      -2.27555010      -0.23438052      -0.61970552       0.00000000
Si       0.26181288       1.70595396      -2.66769160       0.00000000
Si      -1.66519638      -0.12924486      -2.83751921       0.00000000
Si       0.05569551      -0.91592154       3.48315340       0.00000000
Si       2.29387635      -1.19423619       2.61583426       0.00000000
Si       2.42455473      -2.50452234      -1.38623686       0.00000000
Si       1.62456912       2.42491704       2.55306140       0.00000000
Si      -3.36015459       1.90345392       0.39812387       0.00000000
