10
Lattice="16.28999089631971 0.0 0.0 0.0 16.28999089631971 0.0 0.0 0.0 34.433804113860816" Properties=species:S:1:pos:R:3:initial_magmoms:R:1 pbc="T T T"
Si       0.11213384      -1.59615936      -1.70574831       0.00000000
Si       1.83225685       1.35852084      -0.59938956       0.00000000
Si      -2.32528414       0.46516095      -0.24943862       0.00000000
Si       0.32201583      -0.69566445       2.28647474       0.00000000
Si      -2.94959839      -1.39908294       1.13146100       0.00000000
Si       3.46128943       0.08343738       0.53654784       0.00000000
Si       0.99420151       3.36287502       0.33545431       0.00000000
Si      -1.95367666      -0.31102497       3.06092586       0.00000000
Si      -0.86576530      -0.35541522      -3.53979704       0.00000000
Si       2.56343350       0.00847080       2.80979999       0.00000000
