10
Lattice="16.28999089631971 0.0 0.0 0.0 16.28999089631971 0.0 0.0 0.0 34.433804113860816" Properties=species:S:1:pos:R:3:initial_magmoms:R:1 pbc="T T T"
Si       0.46512837      -0.72275472      -2.29411905       0.00000000
Si       0.65534670       2.36543832       0.47935325       0.00000000
Si       1.52761104      -1.57683942       1.22315827       0.00000000
Si      -2.57621463       0.06004494       0.07069264       0.00000000
Si      -2.92133457       2.05995195      -1.36275299       0.00000000
Si       0.26814969      -3.64128741       1.47211482       0.00000000
Si       1.63826901       3.29343631      -1.48110204       0.00000000
Si       2.50051500       0.26334414      -3.21267572       0.00000000
Si      -1.23921288      -0.24506676      -3.93124075       0.00000000
Si       0.68545062      -3.07232658      -2.71855035       0.00000000
