10
Lattice="16.28999089631971 0.0 0.0 0.0 16.28999089631971 0.0 0.0 0.0 34.433804113860816" Properties=species:S:1:pos:R:3:initial_magmoms:R:1 pbc="T T T"
Si      -1.34447886       1.29514297       1.36951924       0.00000000
Si      -1.61166744      -1.18310197      -1.23417365       0.00000000
Si       1.38899943      -1.44332725       1.32576418       0.00000000
Si       0.85724496       1.87848787      -1.43219021       0.00000000
Si      -3.11370318       0.76487089      -1.38742624       0.00000000
Si      -2.48505579       2.73408754      -0.16834008       0.00000000
Si       0.02205666       2.62707853       2.71141911       0.00000000
Si       2.76038937       2.63049943      -0.17365321       0.00000000
Si      -2.69562033      -0.08578640       2.71513796       0.00000000
Si      -0.41927202      -2.29019548      -3.05598602       0.00000000
