10
Lattice="16.28999089631971 0.0 0.0 0.0 16.28999089631971 0.0 0.0 0.0 34.433804113860816" Properties=species:S:1:pos:R:3:initial_magmoms:R:1 pbc="T T T"
Si      -1.44052470       1.28538200       1.31017254       0.00000000
Si      -1.36044306      -1.33257480      -1.36196102       0.00000000
Si       1.35461124       1.37799065      -1.35968838       0.00000000
Si       1.39299048      -1.19418797       1.59111811       0.00000000
Si       0.39631941       2.14500530       2.65326382       0.00000000
Si       2.33855982       0.75304109       2.75229550       0.00000000
Si       2.70456354      -2.68814715       0.03050837       0.00000000
Si      -2.70674640      -2.70192849       0.02241642       0.00000000
Si      -0.00604359      -2.69335995      -2.72068525       0.00000000
Si       2.70817992       0.02094079      -2.72065082       0.00000000
