10
Lattice="16.28999089631971 0.0 0.0 0.0 16.28999089631971 0.0 0.0 0.0 34.433804113860816" Properties=species:S:1:pos:R:3:initial_magmoms:R:1 pbc="T T T"
Si      -0.43761456       2.14816230       0.82372592       0.00000000
Si      -2.24141766      -0.70413525      -0.52332525       0.00000000
Si       1.26416916      -1.27200465       1.60578692       0.00000000
Si       0.89785593       0.07496658      -2.27325215       0.00000000
Si       1.26623799      -2.29161041      -2.47954519       0.00000000
Si       1.63698210       3.30471972       0.49285131       0.00000000
Si      -0.73117665       1.35005004      -3.40918955       0.00000000
Si      -2.21571367      -3.01047997      -0.25673859       0.00000000
Si      -2.56343350      -0.00847080      -2.80979999       0.00000000
Si      -2.37596818       2.96971587      -0.28652384       0.00000000
