10
Lattice="16.28999089631971 0.0 0.0 0.0 16.28999089631971 0.0 0.0 0.0 34.433804113860816" Properties=species:S:1:pos:R:3:initial_magmoms:R:1 pbc="T T T"
Si      -0.74977983      -0.68902139       2.15438659       0.00000000
Si      -0.88189173      -1.76979121      -1.33028190       0.00000000
Si      -1.75788648       1.55605338      -0.55173315       0.00000000
Si       2.34760077       0.62064900       0.03891022       0.00000000
Si      -1.62513927      -0.65509583      -3.27245284       0.00000000
Si      -1.36653552      -3.01207706       1.95560013       0.00000000
Si      -2.63886597       0.68879007       2.71465933       0.00000000
Si      -2.59472007      -2.85259796      -0.09848073       0.00000000
Si      -3.74081931       0.71676000       0.62338994       0.00000000
Si       2.68351686       2.49010569       1.42115276       0.00000000
