10
Lattice="16.28999089631971 0.0 0.0 0.0 16.28999089631971 0.0 0.0 0.0 34.433804113860816" Properties=species:S:1:pos:R:3:initial_magmoms:R:1 pbc="T T T"
Si       0.80928720       1.71859500       1.49489421       0.00000000
Si       1.59830964      -1.87431111       0.24730372       0.00000000
Si      -1.74399111      -1.01871144       1.51115386       0.00000000
Si      -0.20191455       0.48319398      -2.79506231       0.00000000
Si       3.19384998       0.59331438      -1.70474973       0.00000000
Si       2.13372936       0.24799896       3.00225204       0.00000000
Si      -2.37263850      -2.98792809       0.29206769       0.00000000
Si       1.87297533      -0.62980398      -3.32282952       0.00000000
Si       1.66464252       3.56433345       0.18339454       0.00000000
Si      -0.60341418      -2.45765601       3.04901317       0.00000000
