10
Lattice="16.28999089631971 0.0 0.0 0.0 16.28999089631971 0.0 0.0 0.0 34.433804113860816" Properties=species:S:1:pos:R:3:initial_magmoms:R:1 pbc="T T T"
Si       0.03894939       0.67802238       2.21901888       0.00000000
Si       0.40381281       1.69183053      -1.57266158       0.00000000
Si       1.47157344      -1.83668121      -0.25983763       0.00000000
Si      -1.94548212      -1.31580846      -0.30040067       0.00000000
Si      -0.49467843      -3.19060827      -0.51533660       0.00000000
Si      -1.30147326       3.13623225      -0.93222690       0.00000000
Si       0.19082106      -1.39176873       3.30791967       0.00000000
Si       2.65261473       2.38404150      -1.22890872       0.00000000
Si       1.72967220       2.30242860       2.45702547       0.00000000
Si       2.15695890      -1.98920448      -2.45988347       0.00000000
