10
Lattice="16.28999089631971 0.0 0.0 0.0 16.28999089631971 0.0 0.0 0.0 34.433804113860816" Properties=species:S:1:pos:R:3:initial_magmoms:R:1 pbc="T T T"
Si       0.12857697      -0.80887995      -2.18458506       0.00000000
Si       0.07711686      -2.12711562       1.09695831       0.00000000
Si       2.26838250       0.62138205       0.54866854       0.00000000
Si      -2.33298864       0.79464249       0.58489292       0.00000000
Si       0.74872098      -0.10953396       2.50692008       0.00000000
Si      -1.01488329       1.62082242       2.49459277       0.00000000
Si      -1.95880734      -2.78901090       0.06477002       0.00000000
Si      -1.70961921      -2.23669845      -2.25596637       0.00000000
Si       2.55767661       2.54446542      -0.81088211       0.00000000
Si       0.28522161       0.93685419      -3.71065767       0.00000000
