10
Lattice="16.28999089631971 0.0 0.0 0.0 16.28999089631971 0.0 0.0 0.0 34.433804113860816" Properties=species:S:1:pos:R:3:initial_magmoms:R:1 pbc="T T T"
Si       0.90834669       1.62891759      -1.55027960       0.00000000
Si      -1.19239542       1.10709351       1.82181237       0.00000000
Si      -2.07200655      -0.59942313      -1.20315222       0.00000000
Si       1.57711635      -1.70318466       1.25996803       0.00000000
Si      -1.26307773      -0.13168836      -3.43952575       0.00000000
Si       0.41927202       2.29019548       3.05598602       0.00000000
Si      -2.34017253      -0.55718316       3.05192628       0.00000000
Si      -0.64632204       2.19136731      -3.24073929       0.00000000
Si       2.88943875       0.77077764      -2.68576935       0.00000000
Si       2.01041406       3.48916229      -0.55941189       0.00000000
