10
Lattice="16.28999089631971 0.0 0.0 0.0 16.28999089631971 0.0 0.0 0.0 34.433804113860816" Properties=species:S:1:pos:R:3:initial_magmoms:R:1 pbc="T T T"
Si       1.35686541      -1.35894536       1.36079027       0.00000000
Si      -1.35887922       1.35767376       1.36072140       0.00000000
Si       1.34974557       1.35055503      -1.38934623       0.00000000
Si      -1.35071793      -1.35704564      -1.38479408       0.00000000
Si       2.71488230       2.71326240      -0.00375329       0.00000000
Si       2.71581897      -2.71237364       0.00275471       0.00000000
Si      -2.71658556      -2.71416554      -0.00213490       0.00000000
Si      -2.71766070       2.71336014       0.00086085       0.00000000
Si       2.71457604      -0.00107677       2.71748291       0.00000000
Si      -0.00089595       2.71437012       2.71782724       0.00000000
