10
Lattice="16.28999089631971 0.0 0.0 0.0 16.28999089631971 0.0 0.0 0.0 34.433804113860816" Properties=species:S:1:pos:R:3:initial_magmoms:R:1 pbc="T T T"
Si      -1.35659862      -1.35514256      -1.35703698       0.00000000
Si      -1.35356868       1.35704985       1.36096243       0.00000000
Si       1.35846648      -1.35460420       1.35882754       0.00000000
Si       1.35869334       1.35983544      -1.35693368       0.00000000
Si       2.69972934      -0.00170719       2.72240694       0.00000000
Si       2.71690389      -2.70995131       0.00127405       0.00000000
Si       0.00100998      -2.71247626      -2.71455603       0.00000000
Si      -2.71393029       0.00295501      -2.71421169       0.00000000
Si      -2.71422351      -2.71430074      -0.00003443       0.00000000
Si      -2.70817992      -0.02094079       2.72065082       0.00000000
