10
Lattice="16.28999089631971 0.0 0.0 0.0 16.28999089631971 0.0 0.0 0.0 34.433804113860816" Properties=species:S:1:pos:R:3:initial_magmoms:R:1 pbc="T T T"
Si       1.80193384       0.75157173      -1.35937848       0.00000000
Si      -1.94224041       1.39196421      -0.09903168       0.00000000
Si       0.84448989      -0.23149719       2.23093298       0.00000000
Si      -0.94556934      -1.94722906      -1.16117739       0.00000000
Si       2.57213954      -1.56501614       1.41226883       0.00000000
Si       0.37686915       1.99831059      -2.76307329       0.00000000
Si      -1.11847140       3.20201127      -1.39615380       0.00000000
Si      -2.33855982      -0.75304109      -2.75229550       0.00000000
Si      -2.99644776       1.31295771       2.04344081       0.00000000
Si      -0.76170411      -1.30021078       3.57306011       0.00000000
