10
Lattice="16.28999089631971 0.0 0.0 0.0 16.28999089631971 0.0 0.0 0.0 34.433804113860816" Properties=species:S:1:pos:R:3:initial_magmoms:R:1 pbc="T T T"
Si       1.17335797      -1.38295488      -1.50988872       0.00000000
Si      -1.16962200      -1.32690099       1.56401869       0.00000000
Si       1.83323980       1.18955281       0.97588899       0.00000000
Si      -1.60800219       1.40335907      -1.10642761       0.00000000
Si      -1.27208610       3.27281575       0.27581493       0.00000000
Si       1.07440925       3.39287305       0.67634916       0.00000000
Si      -1.26856746      -3.40237731       0.40029320       0.00000000
Si      -0.07395660      -0.28252073       3.66527389       0.00000000
Si      -0.26823114      -3.19590156      -1.80808563       0.00000000
Si       3.80678471       0.30356252      -0.01583956       0.00000000
