10
Lattice="16.28999089631971 0.0 0.0 0.0 16.28999089631971 0.0 0.0 0.0 34.433804113860816" Properties=species:S:1:pos:R:3:initial_magmoms:R:1 pbc="T T T"
Si      -1.10206737      -1.86024469      -0.99086770       0.00000000
Si      -0.73389708       0.67952106       2.18320770       0.00000000
Si      -0.45923139       1.92402819      -1.38692554       0.00000000
Si       1.97469009      -1.67400438      -0.02510226       0.00000000
Si       0.86164326       3.14714655       0.23115426       0.00000000
Si       0.87902469      -2.71838465      -2.12635746       0.00000000
Si       1.16924733       1.43153262       3.44174470       0.00000000
Si      -2.33220672       2.55383217       1.93590398       0.00000000
Si       0.77656059       1.88133210      -3.41456123       0.00000000
Si      -2.65673610      -1.29779498      -2.68132739       0.00000000
