10
Lattice="16.28999089631971 0.0 0.0 0.0 16.28999089631971 0.0 0.0 0.0 34.433804113860816" Properties=species:S:1:pos:R:3:initial_magmoms:R:1 pbc="T T T"
Si       1.35747828       1.35591444      -1.35886197       0.00000000
Si      -1.36073628       1.35843939       1.35438557       0.00000000
Si      -1.35770634      -1.35894438      -1.35886197       0.00000000
Si       1.36023129      -1.36179513       1.35965395       0.00000000
Si       0.00280188       2.70457983       2.70749710       0.00000000
Si      -2.71599912       2.71223613       0.00037877       0.00000000
Si       0.00000000       2.71349046      -2.71613999       0.00000000
Si       2.72104902       0.01156590       2.70856455       0.00000000
Si      -2.71450044      -0.00223173      -2.71593338       0.00000000
Si       2.71741635       2.71306692      -0.00158396       0.00000000
