10
Lattice="16.28999089631971 0.0 0.0 0.0 16.28999089631971 0.0 0.0 0.0 34.433804113860816" Properties=species:S:1:pos:R:3:initial_magmoms:R:1 pbc="T T T"
Si       1.35231624       1.34470692      -1.35538415       0.00000000
Si      -1.49534055       1.20370068       1.36691949       0.00000000
Si       1.42506469      -1.24673886       1.40369481       0.00000000
Si      -1.36081773      -1.37336103      -1.34891060       0.00000000
Si      -0.37686915      -1.99831059       2.76307329       0.00000000
Si      -2.31910956      -0.60634638       2.66404161       0.00000000
Si      -0.18375120       2.54545911       2.78318264       0.00000000
Si       2.70679594       2.67840180       0.01497871       0.00000000
Si      -2.71824714       2.69301393      -0.00106745       0.00000000
Si      -0.00363267       2.70150102      -2.71014850       0.00000000
