10
Lattice="16.28999089631971 0.0 0.0 0.0 16.28999089631971 0.0 0.0 0.0 34.433804113860816" Properties=species:S:1:pos:R:3:initial_magmoms:R:1 pbc="T T T"
Si       1.31158935       1.34175843       1.41626315       0.00000000
Si       1.49534055      -1.20370068      -1.36691949       0.00000000
Si      -1.22290659       1.48931325      -1.36798693       0.00000000
Si      -0.82376901      -1.81004706       1.29712213       0.00000000
Si      -1.08479997       1.49876145       2.46955938       0.00000000
Si       1.11847140      -3.20201127       1.39615380       0.00000000
Si       0.13452282      -2.57706171      -2.71583008       0.00000000
Si      -2.58644475       0.14317281      -2.72109846       0.00000000
Si      -2.66061312      -2.66967036      -0.04596915       0.00000000
Si       2.92040524      -2.45043954       0.03677532       0.00000000
