10
Lattice="16.28999089631971 0.0 0.0 0.0 16.28999089631971 0.0 0.0 0.0 34.433804113860816" Properties=species:S:1:pos:R:3:initial_magmoms:R:1 pbc="T T T"
Si      -0.76778028       1.84099806      -1.29591694       0.00000000
Si      -0.12253338       0.33925554       2.36160934       0.00000000
Si      -2.24231850      -0.94877847       0.01921407       0.00000000
Si       1.25700712      -1.93565925      -0.87062479       0.00000000
Si       2.72952701       1.38943926       0.25963103       0.00000000
Si      -0.76896945       3.55499928       0.33149442       0.00000000
Si      -0.44891982       2.66154165       2.51528749       0.00000000
Si      -1.94186574      -3.18026412       0.65104030       0.00000000
Si      -2.14330788      -0.78990210       3.09659930       0.00000000
Si       3.32391653      -2.07725193       0.24578863       0.00000000
