10
Lattice="16.28999089631971 0.0 0.0 0.0 16.28999089631971 0.0 0.0 0.0 34.433804113860816" Properties=species:S:1:pos:R:3:initial_magmoms:R:1 pbc="T T T"
Si       0.68538546      -0.15252327      -2.20004584       0.00000000
Si       1.81594404      -0.85669110       1.17047452       0.00000000
Si      -1.47157344       1.83668121       0.25983763       0.00000000
Si      -1.96625187      -1.35392706      -0.25549897       0.00000000
Si       0.94045428      -0.25629057       3.29473152       0.00000000
Si      -3.41705556       0.52087275      -0.04056304       0.00000000
Si       1.40230836      -2.45294820      -2.37259373       0.00000000
Si       1.77391584      -3.22913412       0.93777075       0.00000000
Si      -1.43262405       2.51470359       2.47885651       0.00000000
Si      -1.28075238       0.44491248       3.56775731       0.00000000
