10
Lattice="16.28999089631971 0.0 0.0 0.0 16.28999089631971 0.0 0.0 0.0 34.433804113860816" Properties=species:S:1:pos:R:3:initial_magmoms:R:1 pbc="T T T"
Si       1.23579198      -0.04269609      -2.02763569       0.00000000
Si      -2.07488988       1.11299796       0.52776721       0.00000000
Si       0.45923139      -1.92402819       1.38692554       0.00000000
Si       1.32087465       1.22311836       1.61807979       0.00000000
Si      -1.54150641       3.29825259      -0.47845798       0.00000000
Si       0.27982962       3.46450833       1.27005714       0.00000000
Si       3.50459217       1.10657970       0.46227408       0.00000000
Si       0.85913460       1.98402426      -3.08210266       0.00000000
Si      -0.27466569      -1.24450713       3.57013324       0.00000000
Si      -0.64283598      -3.78427288       0.39605784       0.00000000
