10
Lattice="16.28999089631971 0.0 0.0 0.0 16.28999089631971 0.0 0.0 0.0 34.433804113860816" Properties=species:S:1:pos:R:3:initial_magmoms:R:1 pbc="T T T"
Si       0.58064076       2.24355654      -0.39481822       0.00000000
Si       1.19873223      -0.92180223      -1.81228656       0.00000000
Si      -2.24880192      -0.69221097      -0.34375286       0.00000000
Si       0.93022416      -0.37287810       2.18720203       0.00000000
Si       2.99176668       2.10994596      -0.38507345       0.00000000
Si       3.11003371       0.44287623      -1.96475953       0.00000000
Si      -2.65261473      -2.38404150       1.22890872       0.00000000
Si      -0.92294253      -0.08161290       3.68593419       0.00000000
Si      -0.55537497       2.94888096      -2.39921108       0.00000000
Si      -3.95408799       0.75219075       0.29668182       0.00000000
