10
Lattice="16.28999089631971 0.0 0.0 0.0 16.28999089631971 0.0 0.0 0.0 34.433804113860816" Properties=species:S:1:pos:R:3:initial_magmoms:R:1 pbc="T T T"
Si       2.06690941      -0.14159268       1.11641342       0.00000000
Si      -1.22387326      -1.97524395       0.50431778       0.00000000
Si      -1.25700712       1.93565925       0.87062479       0.00000000
Si       2.69827723      -2.21123718       0.04262907       0.00000000
Si      -3.49932562       0.98688078       0.88983886       0.00000000
Si      -3.19887286      -1.24460487       1.52166509       0.00000000
Si       1.47414889      -0.26130789       3.44472525       0.00000000
Si       3.27712609       1.83589929       0.51891772       0.00000000
Si       1.47251989       3.32509851       1.13025582       0.00000000
Si       0.91906714      -1.95222618      -3.21412194       0.00000000
