10
Lattice="16.28999089631971 0.0 0.0 0.0 16.28999089631971 0.0 0.0 0.0 34.433804113860816" Properties=species:S:1:pos:R:3:initial_magmoms:R:1 pbc="T T T"
Si       1.35772194       1.35490446      -1.35827660       0.00000000
Si      -1.36287027       1.35669636       1.35448888       0.00000000
Si      -1.35715248      -1.35977517      -1.35813886       0.00000000
Si       1.36326123      -1.36228383       1.35982612       0.00000000
Si      -2.68791516       0.00778662       2.72963805       0.00000000
Si      -2.71534752       2.71120986      -0.00117075       0.00000000
Si      -0.00011403       2.71303434      -2.71569235       0.00000000
Si       2.71522602      -0.00218286      -2.71541688       0.00000000
Si      -2.71487511      -0.00215028      -2.71579565       0.00000000
Si       2.71577988       2.71555929       0.00013774       0.00000000
