10
Lattice="16.28999089631971 0.0 0.0 0.0 16.28999089631971 0.0 0.0 0.0 34.433804113860816" Properties=species:S:1:pos:R:3:initial_magmoms:R:1 pbc="T T T"
Si       1.05749793       0.50565789      -2.04378515       0.00000000
Si      -2.25608029      -0.60185034      -0.41313701       0.00000000
Si       0.44588988       2.15500410       0.96514563       0.00000000
Si       0.24790122      -2.45785149       0.72868857       0.00000000
Si      -1.55329711       3.16871451      -0.18384218       0.00000000
Si       2.70313002      -1.17638235      -2.02639607       0.00000000
Si      -0.73265904      -0.00327429      -3.50264295       0.00000000
Si      -3.25383695       1.50043932      -0.74776491       0.00000000
Si      -2.17838514      -1.63106883      -2.50251255       0.00000000
Si       2.26300680      -2.89810503      -0.49932487       0.00000000
