10
Lattice="16.28999089631971 0.0 0.0 0.0 16.28999089631971 0.0 0.0 0.0 34.433804113860816" Properties=species:S:1:pos:R:3:initial_magmoms:R:1 pbc="T T T"
Si       0.80232648       1.71401751       1.39623407       0.00000000
Si      -1.89497890      -0.89239878       1.21752597       0.00000000
Si       1.69053873      -1.76212188       0.24850894       0.00000000
Si      -0.27197621       1.20065445      -2.25897968       0.00000000
Si       0.69926291      -1.01602359      -2.95939808       0.00000000
Si       2.16632076       0.40558842       2.73640192       0.00000000
Si      -0.56059984      -2.32331238       2.68600113       0.00000000
Si       2.45124915       2.68271865      -0.02109107       0.00000000
Si       2.69844990      -2.02973400      -1.81041026       0.00000000
Si       3.52225149      -0.84989817       1.35754422       0.00000000
