10
Lattice="16.28999089631971 0.0 0.0 0.0 16.28999089631971 0.0 0.0 0.0 34.433804113860816" Properties=species:S:1:pos:R:3:initial_magmoms:R:1 pbc="T T T"
Si       0.91924144       0.46639899      -2.10283916       0.00000000
Si      -1.70053983      -1.66827519      -0.56392273       0.00000000
Si       1.99918699      -1.01371041       1.14898782       0.00000000
Si      -0.97123912       2.21667804       0.70041840       0.00000000
Si      -0.69926291       1.01602359       2.95939808       0.00000000
Si       0.99127582      -0.74609829       3.20790702       0.00000000
Si       1.55329711      -3.16871451       0.18384218       0.00000000
Si      -0.18029120      -1.02656322      -3.50811792       0.00000000
Si      -1.78723521       2.82861189      -1.59087707       0.00000000
Si      -2.35547928      -1.03166199      -2.71765507       0.00000000
