10
Lattice="16.28999089631971 0.0 0.0 0.0 16.28999089631971 0.0 0.0 0.0 34.433804113860816" Properties=species:S:1:pos:R:3:initial_magmoms:R:1 pbc="T T T"
Si      -0.81599609       0.61193385      -2.29129547       0.00000000
Si       0.97123912      -2.21667804      -0.70041840       0.00000000
Si       1.01049965       2.26527111       0.64353372       0.00000000
Si       0.27197621      -1.20065445       2.25897968       0.00000000
Si       1.18667763       0.34713990      -3.58149640       0.00000000
Si       1.89048056      -1.75027905      -2.80325756       0.00000000
Si       2.72322536       1.48206420       2.23788861       0.00000000
Si       1.07430269       0.51336306       3.65521375       0.00000000
Si      -2.49803633      -1.07966862      -2.74496110       0.00000000
Si       1.76921780       3.45709638      -1.41485137       0.00000000
