10
Lattice="16.28999089631971 0.0 0.0 0.0 16.28999089631971 0.0 0.0 0.0 34.433804113860816" Properties=species:S:1:pos:R:3:initial_magmoms:R:1 pbc="T T T"
Si       1.36979336      -1.41270138      -1.29445006       0.00000000
Si      -1.33384884      -1.37257911       1.37436408       0.00000000
Si       1.38298011       1.34845362       1.37398531       0.00000000
Si      -1.43768130       1.27211868      -1.57807113       0.00000000
Si      -2.68355679       2.70378162      -0.01356348       0.00000000
Si      -2.68479483      -2.70853830      -0.00513753       0.00000000
Si       2.72572409       2.69131977       0.00674559       0.00000000
Si      -2.68982844      -0.01303200       2.73105672       0.00000000
Si       0.12980426       2.36187081      -3.02109423       0.00000000
Si       0.02402655       2.70188190       2.73202087       0.00000000
