10
Lattice="16.28999089631971 0.0 0.0 0.0 16.28999089631971 0.0 0.0 0.0 34.433804113860816" Properties=species:S:1:pos:R:3:initial_magmoms:R:1 pbc="T T T"
Si      -1.35843740       1.35534711       1.35755349       0.00000000
Si       1.35716714       1.35554990      -1.35879310       0.00000000
Si      -1.35805793      -1.36065483      -1.35841433       0.00000000
Si       1.35895904      -1.36534635       1.35765679       0.00000000
Si      -2.71690389       2.70995131      -0.00127405       0.00000000
Si       2.71614410       2.71090265      -0.00278914       0.00000000
Si       2.70975842       0.01470987       2.71731074       0.00000000
Si      -0.00037304       2.71175299      -2.71624329       0.00000000
Si      -0.01717455       2.70824412       2.72113289       0.00000000
Si       2.71389608      -0.00263898      -2.71600225       0.00000000
