10
Lattice="16.28999089631971 0.0 0.0 0.0 16.28999089631971 0.0 0.0 0.0 34.433804113860816" Properties=species:S:1:pos:R:3:initial_magmoms:R:1 pbc="T T T"
Si      -1.40117783       0.84366303      -1.72513455       0.00000000
Si       0.47851875       1.86616515       1.41967210       0.00000000
Si      -1.84583782      -1.52818119       0.37859989       0.00000000
Si       1.98350298       0.21870954      -1.47459405       0.00000000
Si       1.22697909      -1.54337976       2.23203486       0.00000000
Si       2.22420402       0.64416754       2.47420794       0.00000000
Si      -2.78986517      -1.06451892      -1.66800884       0.00000000
Si       3.36904893       0.86783739       0.41058891       0.00000000
Si      -0.94202952      -1.18861614      -3.16254007       0.00000000
Si      -3.41852885      -0.42197616       1.75054671       0.00000000
