10
Lattice="16.28999089631971 0.0 0.0 0.0 16.28999089631971 0.0 0.0 0.0 34.64500226677339" Properties=species:S:1:pos:R:3:initial_magmoms:R:1 pbc="T T T"
Si      -1.56734235      -0.96845679       1.43953529       0.00000000
Si       1.32467022      -1.38227003      -1.39058188       0.00000000
Si      -1.37689596       1.36713825      -1.38483080       0.00000000
Si       1.77670143       0.97384878       1.26360787       0.00000000
Si      -2.58514155      -2.63027071       0.03093800       0.00000000
Si      -2.54154951       2.81243592       0.22138169       0.00000000
Si       2.74918185      -2.65753203       0.06201459       0.00000000
Si      -3.36168585       0.95511528       1.58906321       0.00000000
Si       2.68628616      -0.01198944      -2.76197041       0.00000000
Si       0.25712136      -1.81020833       3.39354916       0.00000000
