10
Lattice="16.28999089631971 0.0 0.0 0.0 16.28999089631971 0.0 0.0 0.0 34.64500226677339" Properties=species:S:1:pos:R:3:initial_magmoms:R:1 pbc="T T T"
Si       1.95304068       1.11759174       0.63854239       0.00000000
Si       0.37322019      -2.34215081      -0.28013964       0.00000000
Si      -0.15332148       1.04269032      -2.17581129       0.00000000
Si      -1.66286691       0.40000095       1.71201839       0.00000000
Si      -3.44093344       0.10228491       0.20405918       0.00000000
Si      -2.99882610      -1.89997505      -0.97605419       0.00000000
Si       3.53517435       0.41746383      -1.06387932       0.00000000
Si       1.17377595       3.35303586       1.10399826       0.00000000
Si      -1.45621197       2.97859392      -1.87730979       0.00000000
Si      -1.65851748      -3.43266857       0.10965149       0.00000000
