10
Lattice="16.28999089631971 0.0 0.0 0.0 16.28999089631971 0.0 0.0 0.0 34.64500226677339" Properties=species:S:1:pos:R:3:initial_magmoms:R:1 pbc="T T T"
Si       1.00102050       2.11261426       0.45454268       0.00000000
Si       1.90084752      -1.01279232      -1.10434471       0.00000000
Si       0.42319791      -1.07620929       2.13998834       0.00000000
Si      -2.28765357       0.00863370      -0.97193144       0.00000000
Si       0.18857304      -3.12583338       0.86529406       0.00000000
Si       2.26087281       2.45719663      -1.58192633       0.00000000
Si       2.51579502      -2.72622339       0.44574285       0.00000000
Si       3.67647381       0.60908310      -1.27292738       0.00000000
Si      -2.48647302       1.13286524       2.85675919       0.00000000
Si      -2.52064944       1.81232440      -2.51668366       0.00000000
