10
Lattice="16.28999089631971 0.0 0.0 0.0 16.28999089631971 0.0 0.0 0.0 34.64500226677339" Properties=species:S:1:pos:R:3:initial_magmoms:R:1 pbc="T T T"
Si      -1.35550719       1.35575154       1.35714943       0.00000000
Si       1.35948195      -1.35793440       1.35718408       0.00000000
Si      -1.35469269      -1.36956546      -1.37408738       0.00000000
Si       1.37138994       1.35827649      -1.38254770       0.00000000
Si       2.71116099       2.71158453      -0.00280625       0.00000000
Si       0.00153126       2.71248048       2.71409099       0.00000000
Si      -2.71349046      -0.00280188       2.71457602       0.00000000
Si      -2.71124244      -2.71684294      -0.00062361       0.00000000
Si      -2.71583622       2.71391400      -0.00595894       0.00000000
Si       2.71555929      -0.00169416       2.71488783       0.00000000
