10
Lattice="16.28999089631971 0.0 0.0 0.0 16.28999089631971 0.0 0.0 0.0 34.64500226677339" Properties=species:S:1:pos:R:3:initial_magmoms:R:1 pbc="T T T"
Si       1.35749457       1.35557235      -1.35714943       0.00000000
Si      -1.36018242       1.35405738       1.35697621       0.00000000
Si      -1.35777150      -1.35987291      -1.35718408       0.00000000
Si       1.35648459      -1.35927018       1.36390521       0.00000000
Si      -2.71283886       2.71362078      -0.00086613       0.00000000
Si       0.00016290       2.71252935      -2.71513034       0.00000000
Si      -2.71261080      -2.71562282      -0.00076219       0.00000000
Si       2.71419093      -0.00164529      -2.71433351       0.00000000
Si      -2.71485882      -0.00275301      -2.71464531       0.00000000
Si      -0.00068418      -2.71691950      -2.71440280       0.00000000
