10
Lattice="16.28999089631971 0.0 0.0 0.0 16.28999089631971 0.0 0.0 0.0 34.64500226677339" Properties=species:S:1:pos:R:3:initial_magmoms:R:1 pbc="T T T"
Si      -1.26655632      -1.55053922       1.09111031       0.00000000
Si       1.14938493      -1.51662018      -1.34893856       0.00000000
Si      -1.56199176       1.21147101      -1.34994327       0.00000000
Si       1.87895213       0.81723672       1.63635366       0.00000000
Si      -1.36302570      -0.40021272       3.06005618       0.00000000
Si       2.49831422      -0.15315858      -2.71793659       0.00000000
Si      -0.21828563       2.56486050      -2.71890665       0.00000000
Si       2.69908847       2.67455736       0.26867214       0.00000000
Si       2.65549643      -2.76814927       0.07822846       0.00000000
Si      -2.76935769       2.72474685       0.02078701       0.00000000
