10
Lattice="16.28999089631971 0.0 0.0 0.0 16.28999089631971 0.0 0.0 0.0 34.64500226677339" Properties=species:S:1:pos:R:3:initial_magmoms:R:1 pbc="T T T"
Si       0.38648025      -2.22156504      -0.66241281       0.00000000
Si       1.79449011       1.54696356      -0.11938674       0.00000000
Si      -0.57743163       0.10995750      -2.35451031       0.00000000
Si      -1.74009780       0.75484602       1.51526931       0.00000000
Si       0.91023633      -1.76450022      -2.98103089       0.00000000
Si      -0.82567494       2.88147294       2.00715933       0.00000000
Si      -1.79119953      -3.12533424      -0.56803977       0.00000000
Si       0.77133150       3.56513166       0.46857392       0.00000000
Si       1.63556487      -1.85767902       2.75071078       0.00000000
Si       2.45254095       0.50262795       2.85828357       0.00000000
