10
Lattice="16.28999089631971 0.0 0.0 0.0 16.28999089631971 0.0 0.0 0.0 34.64500226677339" Properties=species:S:1:pos:R:3:initial_magmoms:R:1 pbc="T T T"
Si      -1.51962894      -0.94182264       1.49801609       0.00000000
Si       0.76074300       1.86222393       1.19154623       0.00000000
Si      -1.56002814       0.83989611      -1.56411879       0.00000000
Si       1.71818775      -1.53894888      -0.71299455       0.00000000
Si       0.03697830       1.52355483      -3.10270420       0.00000000
Si      -2.47445100      -1.28673081      -2.05600881       0.00000000
Si      -2.47902849       1.05166611       2.37169425       0.00000000
Si      -1.23615036       2.94054048       1.68884087       0.00000000
Si      -2.74879089      -2.35095651       0.10022805       0.00000000
Si      -0.11880297      -1.97651457       3.08153609       0.00000000
