10
Lattice="16.28999089631971 0.0 0.0 0.0 16.28999089631971 0.0 0.0 0.0 34.64500226677339" Properties=species:S:1:pos:R:3:initial_magmoms:R:1 pbc="T T T"
Si       1.04019795       0.26774244       2.12297764       0.00000000
Si       0.82013634       1.85732064      -1.36768152       0.00000000
Si      -1.87895213      -0.81723672      -1.63635366       0.00000000
Si       1.79434350      -1.92357207      -0.14952791       0.00000000
Si      -1.22959201      -1.91847330       2.29966725       0.00000000
Si       1.98478989       0.41202297      -2.97389401       0.00000000
Si      -3.24197783      -1.21744944       1.42370252       0.00000000
Si       3.36168585      -0.95511528      -1.58906321       0.00000000
Si      -0.72956720      -2.33385690      -2.98529222       0.00000000
Si      -0.17879904      -0.58885092       3.86537971       0.00000000
