10
Lattice="16.28999089631971 0.0 0.0 0.0 16.28999089631971 0.0 0.0 0.0 34.64500226677339" Properties=species:S:1:pos:R:3:initial_magmoms:R:1 pbc="T T T"
Si      -1.35135324      -1.34887716      -1.37890651       0.00000000
Si       1.46671902      -1.22909679       1.38389539       0.00000000
Si       1.36624230       1.36324494      -1.37492233       0.00000000
Si      -1.25214714       1.40348124       1.48093609       0.00000000
Si       2.41048017       0.64839087       2.65973296       0.00000000
Si       0.62317395       2.36957598       2.89202783       0.00000000
Si      -2.70646947      -2.68667712      -0.00162832       0.00000000
Si      -2.68071498       2.72671794      -0.00197477       0.00000000
Si       2.74198167      -2.69143380      -0.00436527       0.00000000
Si       0.00757485      -2.70542691      -2.73775354       0.00000000
