10
Lattice="16.28999089631971 0.0 0.0 0.0 16.28999089631971 0.0 0.0 0.0 34.64500226677339" Properties=species:S:1:pos:R:3:initial_magmoms:R:1 pbc="T T T"
Si       1.55911590      -1.63549971      -0.57898760       0.00000000
Si      -1.67844015      -0.96097968       1.32797832       0.00000000
Si       0.59468274       1.75624119       1.46794421       0.00000000
Si       1.91316276       0.64301517      -2.43367419       0.00000000
Si       0.12585654       2.36420028      -2.20137932       0.00000000
Si      -3.53418066      -0.66525102      -0.20450956       0.00000000
Si       2.33572536       0.63524484       2.67975778       0.00000000
Si       3.50425593      -0.30934710      -0.95689550       0.00000000
Si       0.55658043       3.67228728      -0.04826052       0.00000000
Si       0.33917409      -2.98985031      -2.31196623       0.00000000
