10
Lattice="16.28999089631971 0.0 0.0 0.0 16.28999089631971 0.0 0.0 0.0 34.64500226677339" Properties=species:S:1:pos:R:3:initial_magmoms:R:1 pbc="T T T"
Si       1.56734235       0.96845679      -1.43953529       0.00000000
Si      -1.01779920      -1.66181392      -1.40859729       0.00000000
Si      -1.79434350       1.92357207       0.14952791       0.00000000
Si       1.82446371      -0.84175154       1.95401386       0.00000000
Si      -0.75414555       2.19131451       2.27250555       0.00000000
Si       0.19044639       2.33559504      -2.82436610       0.00000000
Si      -2.52391070      -0.41028483      -2.83576431       0.00000000
Si      -1.75778874      -3.43408580       0.03370961       0.00000000
Si       3.34404378       1.94230557      -0.17592742       0.00000000
Si       2.58406641       1.41525891       2.53965331       0.00000000
