10
Lattice="16.28999089631971 0.0 0.0 0.0 16.28999089631971 0.0 0.0 0.0 34.64500226677339" Properties=species:S:1:pos:R:3:initial_magmoms:R:1 pbc="T T T"
Si      -0.91619847      -1.76104674      -1.19635461       0.00000000
Si      -1.41235929       1.25800234       1.41763964       0.00000000
Si       1.32157512      -1.43270550       1.39617012       0.00000000
Si       1.08848151       1.49006489      -1.53111737       0.00000000
Si       2.69915526       2.70134368      -0.12722691       0.00000000
Si      -0.05546745       2.62222803       2.77908505       0.00000000
Si       0.80593146      -3.47579730      -1.39316089       0.00000000
Si       2.65479759      -0.09837531       2.77901576       0.00000000
Si      -2.77676571       2.66144458       0.12579954       0.00000000
Si      -0.75308670       2.63561190      -2.71569995       0.00000000
