10
Lattice="16.28999089631971 0.0 0.0 0.0 16.28999089631971 0.0 0.0 0.0 34.64500226677339" Properties=species:S:1:pos:R:3:initial_magmoms:R:1 pbc="T T T"
Si       1.88856486       0.90122796      -1.33996550       0.00000000
Si      -1.85513778       1.67203818      -0.15649156       0.00000000
Si      -0.27471456       1.07382051       2.27021898       0.00000000
Si      -0.88265736      -1.95934263      -1.35808485       0.00000000
Si       0.56778795      -0.88981682       3.27928988       0.00000000
Si       0.42256260       2.06158095      -2.80984983       0.00000000
Si      -1.25560062      -2.43185984       2.23675189       0.00000000
Si       2.63731842      -1.57610311       1.99461783       0.00000000
Si      -2.30716899      -0.68408063      -2.81068131       0.00000000
Si      -2.61511515       1.14499152       2.55908917       0.00000000
