10
Lattice="16.28999089631971 0.0 0.0 0.0 16.28999089631971 0.0 0.0 0.0 34.64500226677339" Properties=species:S:1:pos:R:3:initial_magmoms:R:1 pbc="T T T"
Si       1.39323483       1.84102738       0.65434052       0.00000000
Si       1.17244017      -1.64490948       1.35898562       0.00000000
Si       0.70009533      -1.62070254      -1.75265700       0.00000000
Si      -2.06953047       0.68628630       1.28467205       0.00000000
Si      -2.63731842       1.57610311      -1.99461783       0.00000000
Si       1.44536283      -0.60536313       3.45033235       0.00000000
Si       1.55953944       1.85117605       2.97139957       0.00000000
Si       1.86820236      -0.40821160      -3.43346022       0.00000000
Si      -2.91203298       2.64992362       0.27560115       0.00000000
Si      -0.16772184      -3.63326688       1.57835790       0.00000000
