10
Lattice="16.28999089631971 0.0 0.0 0.0 16.28999089631971 0.0 0.0 0.0 34.64500226677339" Properties=species:S:1:pos:R:3:initial_magmoms:R:1 pbc="T T T"
Si      -1.56747267      -1.74205586      -0.29389372       0.00000000
Si       1.99223442      -0.85781511      -1.00848193       0.00000000
Si       0.86244147       0.07718202       2.23037720       0.00000000
Si      -0.61102161       2.15731728      -0.93822183       0.00000000
Si       2.14462737       2.00238309       1.67480964       0.00000000
Si       3.28869036       1.08224244      -0.37593313       0.00000000
Si      -0.16004925      -3.44219822       0.67952745       0.00000000
Si      -1.63683549      -2.02270486      -2.69520946       0.00000000
Si       1.87805781      -3.31435430      -0.52954916       0.00000000
Si       1.82592981      -0.86796378      -3.32554098       0.00000000
