10
Lattice="16.28999089631971 0.0 0.0 0.0 16.28999089631971 0.0 0.0 0.0 34.64500226677339" Properties=species:S:1:pos:R:3:initial_magmoms:R:1 pbc="T T T"
Si       1.56747267       1.74205586       0.29389372       0.00000000
Si      -2.26243665       0.23321090       0.74517977       0.00000000
Si       1.40742342      -1.70014236       0.97342117       0.00000000
Si      -0.06936282      -0.28064901      -2.40131574       0.00000000
Si      -2.80246644      -2.03486928       1.34235601       0.00000000
Si       3.55970709       0.88424075      -0.71458822       0.00000000
Si       3.44553048      -1.57229844      -0.23565544       0.00000000
Si      -0.91186533       1.68298832      -3.41038664       0.00000000
Si       2.42991414       1.81923788       2.52427092       0.00000000
Si      -2.52693738       1.66098053       2.61022522       0.00000000
