10
Lattice="16.28999089631971 0.0 0.0 0.0 16.28999089631971 0.0 0.0 0.0 34.64500226677339" Properties=species:S:1:pos:R:3:initial_magmoms:R:1 pbc="T T T"
Si       1.60870266       0.88627374      -1.41147283       0.00000000
Si      -1.36518345       1.62818550       1.19178874       0.00000000
Si       1.79299143      -0.20689929       1.69414156       0.00000000
Si      -1.15088850      -1.77331311      -1.30483545       0.00000000
Si       0.09583407       2.10403269      -2.77000806       0.00000000
Si       0.99109989      -2.40961680       2.68408841       0.00000000
Si       3.02933727       2.22695703       0.07216558       0.00000000
Si      -2.61689076      -0.61296012      -2.77471978       0.00000000
Si      -2.53392579       0.55113957       2.91153297       0.00000000
Si      -3.00399003       2.61182457      -0.17637781       0.00000000
