10
Lattice="16.28999089631971 0.0 0.0 0.0 16.28999089631971 0.0 0.0 0.0 34.64500226677339" Properties=species:S:1:pos:R:3:initial_magmoms:R:1 pbc="T T T"
Si       1.16874234       1.07704593      -1.71974423       0.00000000
Si      -0.78024213      -2.15186013      -0.60618394       0.00000000
Si      -1.43024571       1.84868694       0.42436687       0.00000000
Si       1.08807426       0.06452469       2.15987458       0.00000000
Si       1.88690328       2.76338673      -0.18923111       0.00000000
Si       2.81362509       1.60565643       1.57343830       0.00000000
Si      -2.23638894       1.23077466       2.54433039       0.00000000
Si      -0.47006424       2.06068500      -3.08791078       0.00000000
Si      -3.12064272      -2.08068912      -0.31731375       0.00000000
Si      -0.06784785       3.86612199       0.48849480       0.00000000
