10
Lattice="16.28999089631971 0.0 0.0 0.0 16.28999089631971 0.0 0.0 0.0 34.64500226677339" Properties=species:S:1:pos:R:3:initial_magmoms:R:1 pbc="T T T"
Si       1.72555083       1.54113174      -0.58643628       0.00000000
Si      -1.08807426      -0.06452469      -2.15987458       0.00000000
Si       0.61102161      -2.15731728       0.93822183       0.00000000
Si      -1.23981561       1.29399615       1.74389181       0.00000000
Si       1.10646567       1.55103606       2.70359355       0.00000000
Si      -2.51831997       1.78416225      -1.73550771       0.00000000
Si      -3.32446320       1.16624997       0.38445581       0.00000000
Si       0.79882902       2.69886204      -2.34910569       0.00000000
Si       2.75564898      -0.15493419       2.61303147       0.00000000
Si       3.65604615       0.36768159      -1.36792403       0.00000000
