10
Lattice="16.28999089631971 0.0 0.0 0.0 16.28999089631971 0.0 0.0 0.0 34.64500226677339" Properties=species:S:1:pos:R:3:initial_magmoms:R:1 pbc="T T T"
Si       1.59339006       1.73117088      -0.30698954       0.00000000
Si      -1.18312641       0.51847812       2.00920338       0.00000000
Si      -1.48776570      -0.07556931      -1.87391457       0.00000000
Si       1.08771588      -2.16599985      -0.18413829       0.00000000
Si      -0.96335802      -3.44870703      -0.24726152       0.00000000
Si      -0.06116895       1.09651248      -3.49214889       0.00000000
Si       2.28511233       1.35355239      -2.53244715       0.00000000
Si      -0.07478739      -0.82816731       3.58437394       0.00000000
Si      -3.20595345       1.46337957      -1.16092003       0.00000000
Si      -3.32475642      -0.51313500       1.92061606       0.00000000
