10
Lattice="16.28999089631971 0.0 0.0 0.0 16.28999089631971 0.0 0.0 0.0 34.64500226677339" Properties=species:S:1:pos:R:3:initial_magmoms:R:1 pbc="T T T"
Si      -1.35490446      -1.35404109       1.38685407       0.00000000
Si       1.36251189       1.36068741       1.38726981       0.00000000
Si       1.44927243      -1.28637243      -1.45378479       0.00000000
Si      -1.17317322       1.53091791      -1.49960630       0.00000000
Si       2.43947637       0.57259350      -2.78546116       0.00000000
Si       0.73489077       2.45245950      -2.77669597       0.00000000
Si      -2.70270648      -2.71295289      -0.01814706       0.00000000
Si       2.73246831      -2.69259039       0.01652221       0.00000000
Si      -2.68918578       2.73600324       0.00955163       0.00000000
Si       2.72772792       2.73051351       0.02769523       0.00000000
