10
Lattice="16.28999089631971 0.0 0.0 0.0 16.28999089631971 0.0 0.0 0.0 34.64500226677339" Properties=species:S:1:pos:R:3:initial_magmoms:R:1 pbc="T T T"
Si       0.69074487      -1.45854144       1.65887293       0.00000000
Si      -1.55911590       1.63549971       0.57898760       0.00000000
Si       1.94514003       1.32615261      -0.37790790       0.00000000
Si      -1.21994181      -1.35435060      -1.73297863       0.00000000
Si       0.35404686       2.27851488      -1.85468659       0.00000000
Si      -0.58971429       0.40102722      -3.13052415       0.00000000
Si       3.25358541      -0.40768983      -1.62152559       0.00000000
Si       0.91597041      -0.14354748       3.62982821       0.00000000
Si       0.28852848      -3.26397843      -1.91753266       0.00000000
Si       2.64549600      -2.56127670       0.98114701       0.00000000
