10
Lattice="16.28999089631971 0.0 0.0 0.0 16.28999089631971 0.0 0.0 0.0 34.64500226677339" Properties=species:S:1:pos:R:3:initial_magmoms:R:1 pbc="T T T"
Si      -0.23299587       1.80369070      -1.54475222       0.00000000
Si      -0.66626100      -2.13106824      -0.91106013       0.00000000
Si      -2.10611781       0.42501750       1.17831183       0.00000000
Si       2.28765357      -0.00863370       0.97193144       0.00000000
Si      -0.22864644      -2.02897881      -3.14711912       0.00000000
Si      -0.56042487       3.72004630      -0.01313046       0.00000000
Si      -3.00634882      -2.23975512      -0.57230111       0.00000000
Si       1.42987104       1.40368975      -3.25677061       0.00000000
Si      -0.16878069       3.07043368       2.31834091       0.00000000
Si      -2.71073745      -2.05269705       1.86483758       0.00000000
