10
Lattice="16.28999089631971 0.0 0.0 0.0 16.28999089631971 0.0 0.0 0.0 34.64500226677339" Properties=species:S:1:pos:R:3:initial_magmoms:R:1 pbc="T T T"
Si       1.34991972      -1.35563751       1.35711479       0.00000000
Si       1.35496962       1.35731538      -1.35690692       0.00000000
Si      -1.35964485      -1.35757602      -1.35704550       0.00000000
Si      -1.35835794       1.35501849       1.36279657       0.00000000
Si       2.71199178       0.00026064      -2.71422957       0.00000000
Si       2.71516833      -2.71256193       0.00024252       0.00000000
Si      -0.00215028       2.71406061      -2.71447209       0.00000000
Si      -0.00245979      -2.71526607      -2.71467996       0.00000000
Si      -2.71702539      -2.71365336      -0.00003465       0.00000000
Si       2.70158247       0.01998783       2.72943874       0.00000000
