10
Lattice="16.28999089631971 0.0 0.0 0.0 16.28999089631971 0.0 0.0 0.0 34.64500226677339" Properties=species:S:1:pos:R:3:initial_magmoms:R:1 pbc="T T T"
Si       0.69605541       0.98378568       1.99773588       0.00000000
Si      -1.74104262       1.12099635      -1.21181357       0.00000000
Si       1.94605227       0.25953228      -1.39179445       0.00000000
Si       0.13936095      -2.41429203       0.37108283       0.00000000
Si       2.42934399      -2.31932133       0.96074109       0.00000000
Si       2.41394994      -0.54053478       2.60752291       0.00000000
Si      -2.33572536      -0.63524484      -2.67975778       0.00000000
Si       3.44476485      -1.51106040      -0.98118166       0.00000000
Si       1.52102988       3.15959211       1.68925661       0.00000000
Si      -1.08634752       1.58928498       3.38918389       0.00000000
