10
Lattice="16.28999089631971 0.0 0.0 0.0 16.28999089631971 0.0 0.0 0.0 34.64500226677339" Properties=species:S:1:pos:R:3:initial_magmoms:R:1 pbc="T T T"
Si       1.49871258      -1.77059268       0.41061280       0.00000000
Si      -1.94605227      -0.25953228       1.39179445       0.00000000
Si       1.34016201       1.98835740      -0.21937228       0.00000000
Si      -0.77752170      -1.20412422      -2.24485882       0.00000000
Si       0.48329172      -2.57885361       2.35253555       0.00000000
Si      -1.80669132      -2.67382431       1.76287728       0.00000000
Si      -1.24999686       0.72425340       3.38953034       0.00000000
Si      -3.68709489       0.86146407       0.17998089       0.00000000
Si       3.47121981      -0.88119126       1.33386798       0.00000000
Si       1.61308467       3.02790375       1.87197445       0.00000000
