10
Lattice="16.28999089631971 0.0 0.0 0.0 16.28999089631971 0.0 0.0 0.0 34.64500226677339" Properties=species:S:1:pos:R:3:initial_magmoms:R:1 pbc="T T T"
Si      -0.69605541      -0.98378568      -1.99773588       0.00000000
Si      -1.78240293       0.60549930       1.39144800       0.00000000
Si       0.82497447       2.17580643      -0.30847927       0.00000000
Si       1.71789453      -1.52432046       0.60978703       0.00000000
Si       1.94794191       2.10281094       1.80646072       0.00000000
Si       3.26329425       0.17788680       1.37869864       0.00000000
Si       1.24999686      -0.72425340      -3.38953034       0.00000000
Si      -2.67833664      -1.47170376       2.21641526       0.00000000
Si      -0.55669446      -3.39807771      -1.62665306       0.00000000
Si      -3.38491539       1.84107951       0.06045556       0.00000000
