10
Lattice="16.28999089631971 0.0 0.0 0.0 16.28999089631971 0.0 0.0 0.0 34.64500226677339" Properties=species:S:1:pos:R:3:initial_magmoms:R:1 pbc="T T T"
Si      -0.05056416       1.65343500      -1.76686146       0.00000000
Si       0.85874364       1.79802504       1.38989387       0.00000000
Si      -1.90806399      -0.92154159       1.27708968       0.00000000
Si       1.70458560      -1.87986600      -0.00876519       0.00000000
Si       1.99283715       0.27805401       2.80439120       0.00000000
Si       3.41299935      -0.89352279       1.29928328       0.00000000
Si      -0.73489077      -2.45245950       2.77669597       0.00000000
Si      -0.49647033       0.49277250      -3.73663881       0.00000000
Si       2.68374492       2.74580982       0.19884341       0.00000000
Si      -2.58906744       2.14278660      -2.04239332       0.00000000
