10
Lattice="16.28999089631971 0.0 0.0 0.0 16.28999089631971 0.0 0.0 0.0 34.64500226677339" Properties=species:S:1:pos:R:3:initial_magmoms:R:1 pbc="T T T"
Si      -0.89609661       1.56302876       1.49059343       0.00000000
Si       0.03003876       1.94620214      -1.51034972       0.00000000
Si       1.84156821      -1.14554701       1.18458258       0.00000000
Si      -2.03012333      -1.38532182      -0.33273079       0.00000000
Si      -1.90729836      -0.69921404      -2.65037880       0.00000000
Si       2.24554392       2.42638247      -0.84021106       0.00000000
Si      -2.02367901       0.02583268       2.84149949       0.00000000
Si       2.90967093      -2.20907454      -0.71677085       0.00000000
Si       0.75308670      -2.63561190       2.71569995       0.00000000
Si       0.71910576       2.69998931       2.73896062       0.00000000
