10
Lattice="16.28999089631971 0.0 0.0 0.0 16.28999089631971 0.0 0.0 0.0 34.64500226677339" Properties=species:S:1:pos:R:3:initial_magmoms:R:1 pbc="T T T"
Si       1.64543661       1.26984346       1.06256281       0.00000000
Si      -1.38608352       1.33044714      -1.37197750       0.00000000
Si      -1.16810703      -1.21249095       1.68080322       0.00000000
Si       1.35394335      -1.40277444      -1.36785474       0.00000000
Si      -2.59908579      -2.52007296       0.11127981       0.00000000
Si      -0.02091636       2.66862503      -2.74544474       0.00000000
Si       2.69328068      -0.04556041      -2.74825099       0.00000000
Si      -2.74144410      -0.04426989      -2.74870137       0.00000000
Si      -0.02023218      -2.76105093      -2.74811241       0.00000000
Si      -2.61695592       2.88554267       0.09887689       0.00000000
