10
Lattice="16.28999089631971 0.0 0.0 0.0 16.28999089631971 0.0 0.0 0.0 34.64500226677339" Properties=species:S:1:pos:R:3:initial_magmoms:R:1 pbc="T T T"
Si      -0.16630461      -0.01014867      -2.31705905       0.00000000
Si      -1.99223442       0.85781511       1.00848193       0.00000000
Si       1.29645594       1.94005755       0.63254880       0.00000000
Si      -0.11417661      -2.45653919       0.47893278       0.00000000
Si      -1.12979295       0.93499713       3.23885914       0.00000000
Si      -3.55970709      -0.88424075       0.71458822       0.00000000
Si      -2.15228367      -2.58438311       1.68800939       0.00000000
Si       1.05279012       3.38281398      -1.29766393       0.00000000
Si      -1.55953944      -1.85117605      -2.97139957       0.00000000
Si       1.85763015       0.16078230      -3.37335111       0.00000000
