10
Lattice="16.28999089631971 0.0 0.0 0.0 16.28999089631971 0.0 0.0 0.0 34.64500226677339" Properties=species:S:1:pos:R:3:initial_magmoms:R:1 pbc="T T T"
Si      -1.60870266      -0.88627374       1.41147283       0.00000000
Si      -1.51286859       1.21775895      -1.35853523       0.00000000
Si       1.20736593      -1.51327584      -1.37073028       0.00000000
Si       1.42063461       1.34068329       1.48363841       0.00000000
Si       0.18428877      -1.09317303       3.10561438       0.00000000
Si       2.55107205      -0.15988635      -2.73969367       0.00000000
Si      -0.16700508       2.55498876      -2.73969367       0.00000000
Si       2.68336978       2.72645730       0.00980454       0.00000000
Si      -2.75959116      -2.65958685       0.10663738       0.00000000
Si       2.76935769      -2.72474685      -0.02078701       0.00000000
