10
Lattice="16.28999089631971 0.0 0.0 0.0 16.28999089631971 0.0 0.0 0.0 34.64500226677339" Properties=species:S:1:pos:R:3:initial_magmoms:R:1 pbc="T T T"
Si      -0.75396636       1.12958118      -1.92588211       0.00000000
Si      -1.46455245      -1.85746725      -0.04735974       0.00000000
Si      -0.55586367       0.81217053       2.21097599       0.00000000
Si       2.38569398      -0.76242087       0.06042092       0.00000000
Si      -3.39504777      -0.68401710       0.73412801       0.00000000
Si       2.11116675      -1.61147196       2.57551091       0.00000000
Si      -0.64540980      -0.61385607      -3.67867769       0.00000000
Si       3.46777352       1.50056964       0.33799683       0.00000000
Si      -2.78643708       2.12735997      -1.50629625       0.00000000
Si       0.27332991       2.98118403       2.43838591       0.00000000
