10
Lattice="16.28999089631971 0.0 0.0 0.0 16.28999089631971 0.0 0.0 0.0 34.64500226677339" Properties=species:S:1:pos:R:3:initial_magmoms:R:1 pbc="T T T"
Si      -0.02663415      -0.98965008      -2.19164407       0.00000000
Si       0.44621568       2.34603693      -0.31301777       0.00000000
Si      -2.32500654       0.40606083       0.57143499       0.00000000
Si       1.20174655      -1.12560642       1.78498080       0.00000000
Si      -1.14961788       2.62798425      -2.13368295       0.00000000
Si      -0.74732004       0.73029699      -3.66367639       0.00000000
Si      -3.08907270       1.99513404      -1.05057564       0.00000000
Si       0.39938193      -3.39815916       1.73623526       0.00000000
Si      -1.43317791      -2.97735588      -1.95896810       0.00000000
Si       0.70861258       3.31711641       1.92175935       0.00000000
