10
Lattice="16.28999089631971 0.0 0.0 0.0 16.28999089631971 0.0 0.0 0.0 34.64500226677339" Properties=species:S:1:pos:R:3:initial_magmoms:R:1 pbc="T T T"
Si       1.35707103       1.35648459       1.35694156       0.00000000
Si      -1.35875216       1.35526284      -1.35721872       0.00000000
Si      -1.35764118      -1.35865116       1.35704550       0.00000000
Si       1.35581670      -1.35780408      -1.36345483       0.00000000
Si      -2.71153397       2.71432125       0.00058897       0.00000000
Si       0.00016290       2.71384884       2.71429886       0.00000000
Si      -2.71516992      -0.00141723       2.71374454       0.00000000
Si      -2.71339380      -2.71554300       0.00048503       0.00000000
Si       2.71533123       2.71441899       0.00034645       0.00000000
Si       2.71544526      -0.00201996       2.71454138       0.00000000
