10
Lattice="16.28999089631971 0.0 0.0 0.0 16.28999089631971 0.0 0.0 0.0 34.64500226677339" Properties=species:S:1:pos:R:3:initial_magmoms:R:1 pbc="T T T"
Si       1.06850997      -1.72276524       1.20308302       0.00000000
Si       1.65655846       1.09428075      -1.32984916       0.00000000
Si      -1.16300826      -1.57429818      -1.47002291       0.00000000
Si       0.18353943       1.88401995       2.16295799       0.00000000
Si       1.39461948      -0.03036456       2.88191148       0.00000000
Si      -2.39194215       2.54692521       0.25148821       0.00000000
Si      -2.72883564      -2.40360579       0.09402659       0.00000000
Si       0.13010823       2.35664172      -2.79716976       0.00000000
Si      -2.61267165      -0.33757767      -2.80714752       0.00000000
Si       2.85370568      -2.78949960       0.05092818       0.00000000
