10
Lattice="16.28999089631971 0.0 0.0 0.0 16.28999089631971 0.0 0.0 0.0 34.64500226677339" Properties=species:S:1:pos:R:3:initial_magmoms:R:1 pbc="T T T"
Si      -2.19917443       0.23954445      -0.76416524       0.00000000
Si       0.91442286       2.12662692       0.49189002       0.00000000
Si      -0.27433989      -1.06422570       2.15623686       0.00000000
Si       1.74009780      -0.75484602      -1.51526931       0.00000000
Si       2.47445100       1.28673081       2.05600881       0.00000000
Si       1.02855060      -3.00012930       1.85773535       0.00000000
Si       0.95482206       0.34490817       3.55402490       0.00000000
Si      -3.20235825      -1.86608466      -1.12523566       0.00000000
Si       2.51142930       2.81028564      -1.04669539       0.00000000
Si      -1.92464721       1.08859554      -3.27925523       0.00000000
