10
Lattice="16.28999089631971 0.0 0.0 0.0 16.28999089631971 0.0 0.0 0.0 34.64500226677339" Properties=species:S:1:pos:R:3:initial_magmoms:R:1 pbc="T T T"
Si       1.35719158       1.35580607      -1.35763446       0.00000000
Si      -1.35923216       1.35486826       1.35863917       0.00000000
Si       1.35334714      -1.35935163       1.36102967       0.00000000
Si      -1.35792275      -1.35949824      -1.35749588       0.00000000
Si      -2.71266034       2.71466564      -0.00058897       0.00000000
Si      -0.00011566       2.71317022      -2.71447209       0.00000000
Si       2.71501195      -0.00229689      -2.71474925       0.00000000
Si      -2.71552738      -0.00164529      -2.71426422       0.00000000
Si       2.71730884       2.71459071      -0.00100471       0.00000000
Si      -2.71555996      -2.71653669       0.00010394       0.00000000
