10
Lattice="10.86 0.0 0.0 0.0 10.86 0.0 0.0 0.0 10.86" Properties=species:S:1:pos:R:3:initial_magmoms:R:1 pbc="T T T"
Si       1.58672202      -1.11568038       1.30447062       0.00000000
Si      -1.34783460      -1.22189118      -1.54503048       0.00000000
Si      -1.34896404       1.77164610       0.93819540       0.00000000
Si       0.06598536      -2.35251492       2.41507938       0.00000000
Si      -2.64901464      -2.35251492      -0.29992062       0.00000000
Si      -2.64901464       0.36248508       2.41507938       0.00000000
Si       2.78098536      -2.35251492      -0.29992062       0.00000000
Si       2.78098536       0.36248508       2.41507938       0.00000000
Si       0.06598536      -2.35251492      -3.01492062       0.00000000
Si       0.06598536       3.07748508       2.41507938       0.00000000
