10
Lattice="10.86 0.0 0.0 0.0 10.86 0.0 0.0 0.0 10.86" Properties=species:S:1:pos:R:3:initial_magmoms:R:1 pbc="T T T"
Si       1.26515742       1.07671470      -1.15392930       0.00000000
Si      -1.18266486       1.04768592       1.54678980       0.00000000
Si      -1.12985268      -1.76473914      -1.00163952       0.00000000
Si       0.03710862       2.42356104      -2.50200282       0.00000000
Si      -2.67789138       2.42356104       0.21299718       0.00000000
Si       2.75210862       2.42356104       0.21299718       0.00000000
Si      -2.67789138      -0.29143896      -2.50200282       0.00000000
Si       2.75210862      -0.29143896      -2.50200282       0.00000000
Si       0.03710862       2.42356104       2.92799718       0.00000000
Si       0.03710862      -3.00643896      -2.50200282       0.00000000
