10
Lattice="10.86 0.0 0.0 0.0 10.86 0.0 0.0 0.0 10.86" Properties=species:S:1:pos:R:3:initial_magmoms:R:1 pbc="T T T"
Si      -1.26515742      -1.07671470       1.15392930       0.00000000
Si      -1.22804880       1.34684634      -1.34807352       0.00000000
Si       1.48695120       1.34684634       1.36692648       0.00000000
Si       1.48695120      -1.36815366      -1.34807352       0.00000000
Si      -2.44782228      -0.02902878       2.70071910       0.00000000
Si      -2.39501010      -2.84145384       0.15228978       0.00000000
Si      -2.58554880       2.70434634       0.00942648       0.00000000
Si      -2.58554880      -0.01065366      -2.70557352       0.00000000
Si       0.12945120       2.70434634      -2.70557352       0.00000000
Si       0.12945120       2.70434634       2.72442648       0.00000000
