10
Lattice="10.86 0.0 0.0 0.0 10.86 0.0 0.0 0.0 10.86" Properties=species:S:1:pos:R:3:initial_magmoms:R:1 pbc="T T T"
Si       1.14192900       1.25343948       1.36576446       0.00000000
Si       1.14192900      -1.46156052      -1.34923554       0.00000000
Si      -1.57307100       1.25343948      -1.34923554       0.00000000
Si       2.49942900       2.61093948       0.00826446       0.00000000
Si       2.49942900      -0.10406052      -2.70673554       0.00000000
Si       2.49942900      -0.10406052       2.72326446       0.00000000
Si      -0.21557100       2.61093948      -2.70673554       0.00000000
Si       2.49942900      -2.81906052       0.00826446       0.00000000
Si      -0.21557100       2.61093948       2.72326446       0.00000000
Si      -0.22847268      -2.78964078       2.62957524       0.00000000
