10
Lattice="10.86 0.0 0.0 0.0 10.86 0.0 0.0 0.0 10.86" Properties=species:S:1:pos:R:3:initial_magmoms:R:1 pbc="T T T"
Si       1.24033146      -1.32274800      -1.31118210       0.00000000
Si      -1.47466854       1.39225200      -1.31118210       0.00000000
Si      -1.47466854      -1.32274800       1.40381790       0.00000000
Si       2.41183224      -0.02286030       2.73275610       0.00000000
Si       2.59783146       0.03475200      -2.66868210       0.00000000
Si       2.59783146      -2.68024800       0.04631790       0.00000000
Si      -2.64162984       2.63395182       0.18918120       0.00000000
Si      -0.11716854      -2.68024800      -2.66868210       0.00000000
Si       2.55897438       2.80120668      -0.08323104       0.00000000
Si      -0.11716854       2.74975200      -2.66868210       0.00000000
