10
Lattice="16.28999089631971 0.0 0.0 0.0 16.28999089631971 0.0 0.0 0.0 34.28971787722196" Properties=species:S:1:pos:R:3:initial_magmoms:R:1 pbc="T T T"
Si       0.93398715       1.69632657       1.27907989       0.00000000
Si      -1.74914689      -1.03262799       1.24014732       0.00000000
Si      -0.58516938       1.22958549      -2.00837463       0.00000000
Si       1.89074772      -1.76283049      -0.22606267       0.00000000
Si       2.41206030      -0.45501228      -2.25827823       0.00000000
Si      -1.35462753      -2.93041529      -1.05601147       0.00000000
Si       1.65314178       1.99565532      -2.29081919       0.00000000
Si       2.31795297       0.33808266       2.63391540       0.00000000
Si      -0.38973825      -2.39015744       2.61911595       0.00000000
Si       2.62834263       2.57105070      -0.08684634       0.00000000
