10
Lattice="16.28999089631971 0.0 0.0 0.0 16.28999089631971 0.0 0.0 0.0 34.28971787722196" Properties=species:S:1:pos:R:3:initial_magmoms:R:1 pbc="T T T"
Si       0.34143677       0.93068747       2.06623097       0.00000000
Si      -0.96948210       1.83461631      -1.05005462       0.00000000
Si      -1.55035092      -1.75855437       0.20546410       0.00000000
Si       2.05033270       0.10262700      -1.16540529       0.00000000
Si      -0.68145861       0.89117884      -3.20766774       0.00000000
Si       1.61183849       2.76875333       1.46129143       0.00000000
Si       0.71535906       3.40662086      -0.64780171       0.00000000
Si       1.35533614      -0.42691203      -3.31554325       0.00000000
Si      -1.83754362       0.98492176       3.02764662       0.00000000
Si      -0.11184388      -3.67231986       0.16894553       0.00000000
