10
Lattice="16.28999089631971 0.0 0.0 0.0 16.28999089631971 0.0 0.0 0.0 34.28971787722196" Properties=species:S:1:pos:R:3:initial_magmoms:R:1 pbc="T T T"
Si      -0.87024438       2.00230164      -0.84726511       0.00000000
Si      -1.31754823      -1.43477433       1.37539020       0.00000000
Si       0.59111523      -1.49793066      -1.76623007       0.00000000
Si       1.57480317       1.28290266       1.32977799       0.00000000
Si       0.09464490       2.54255949       2.82786231       0.00000000
Si      -2.63309021      -0.14610501       2.83979514       0.00000000
Si      -2.83045985       2.65711698       0.20115118       0.00000000
Si       2.37513087       3.16988643      -0.01731632       0.00000000
Si       2.80069083      -0.14968881       2.82719366       0.00000000
Si       0.08711892      -2.86422183       2.81408469       0.00000000
