10
Lattice="16.28999089631971 0.0 0.0 0.0 16.28999089631971 0.0 0.0 0.0 34.28971787722196" Properties=species:S:1:pos:R:3:initial_magmoms:R:1 pbc="T T T"
Si       1.35610992       1.35774381      -1.35773643       0.00000000
Si       1.35769005      -1.35704899       1.35766785       0.00000000
Si      -1.35749457       1.35797187       1.35722208       0.00000000
Si      -1.35935163      -1.35711284      -1.35773643       0.00000000
Si       0.00022806       2.71258311       2.71392982       0.00000000
Si       2.71360449      -0.00007982       2.71386124       0.00000000
Si       0.00045612       2.71277859      -2.71629581       0.00000000
Si       2.71503801      -2.71455161       0.00051435       0.00000000
Si      -2.71498914       2.71492887       0.00013716       0.00000000
Si      -0.00043983      -2.71569191       2.71423843       0.00000000
