10
Lattice="16.28999089631971 0.0 0.0 0.0 16.28999089631971 0.0 0.0 0.0 34.28971787722196" Properties=species:S:1:pos:R:3:initial_magmoms:R:1 pbc="T T T"
Si       0.74679876       1.97941256      -1.15347246       0.00000000
Si       1.61705943      -1.80867123      -0.30257264       0.00000000
Si       1.41315750      -0.49875582       2.05254937       0.00000000
Si      -2.03800932      -0.96045093      -1.20068943       0.00000000
Si      -0.64488852      -1.72689543       2.34120038       0.00000000
Si       2.04242391       0.55943118      -2.65930627       0.00000000
Si      -0.68574384      -2.19177945      -2.67185631       0.00000000
Si       3.44934234      -0.81564761      -1.34693516       0.00000000
Si       0.46595916      -3.64069350      -1.18649348       0.00000000
Si       1.54160415       3.80258936       0.27781545       0.00000000
