10
Lattice="16.28999089631971 0.0 0.0 0.0 16.28999089631971 0.0 0.0 0.0 34.28971787722196" Properties=species:S:1:pos:R:3:initial_magmoms:R:1 pbc="T T T"
Si      -2.09132649       0.81971769       0.57534750       0.00000000
Si      -0.39449493      -1.10030642      -2.00951575       0.00000000
Si       0.91285902      -1.44547916       1.60211938       0.00000000
Si       2.00094957       1.21023786      -0.43047336       0.00000000
Si       2.61680931      -2.10957359       0.07667185       0.00000000
Si       1.66726521      -2.24126195      -2.11327649       0.00000000
Si      -1.77347601       3.13195287       0.27884414       0.00000000
Si      -3.56721678      -0.88878403      -0.12145425       0.00000000
Si       1.15986429      -0.05743039       3.55210815       0.00000000
Si      -2.45254095      -2.32844603      -1.72086474       0.00000000
