10
Lattice="16.28999089631971 0.0 0.0 0.0 16.28999089631971 0.0 0.0 0.0 34.28971787722196" Properties=species:S:1:pos:R:3:initial_magmoms:R:1 pbc="T T T"
Si       2.28705084       0.21299175      -0.60991155       0.00000000
Si      -1.19096190       2.08922508       0.19318838       0.00000000
Si      -0.36134478      -1.04166405       2.17324924       0.00000000
Si      -1.29150378      -0.89489115      -1.90644080       0.00000000
Si      -3.22921557      -0.77664204      -0.42539848       0.00000000
Si       0.45584307       0.80966187       3.39499257       0.00000000
Si       0.63889380      -2.45615081      -2.57001579       0.00000000
Si       2.00502207       1.14526845      -2.81011253       0.00000000
Si      -0.25026327       2.85278625       2.24549772       0.00000000
Si      -3.32645058       1.29775914       0.74144698       0.00000000
