10
Lattice="16.28999089631971 0.0 0.0 0.0 16.28999089631971 0.0 0.0 0.0 34.28971787722196" Properties=species:S:1:pos:R:3:initial_magmoms:R:1 pbc="T T T"
Si       1.30948794       0.82048006       1.75858345       0.00000000
Si       0.53682066       1.37761435      -1.86316715       0.00000000
Si       0.07020990      -2.23465147      -0.82233647       0.00000000
Si      -2.20872852       0.92357947       0.40653912       0.00000000
Si      -1.39675347       0.57795454      -2.86981096       0.00000000
Si      -1.77023430      -1.74254686      -2.22015760       0.00000000
Si       0.43958565       3.45201553      -0.69632169       0.00000000
Si      -1.68774174       2.50507783       2.00848706       0.00000000
Si       3.40469145       1.11259234       0.73548057       0.00000000
Si      -3.47913023      -0.91448639       1.01147866       0.00000000
