10
Lattice="16.28999089631971 0.0 0.0 0.0 16.28999089631971 0.0 0.0 0.0 34.28971787722196" Properties=species:S:1:pos:R:3:initial_magmoms:R:1 pbc="T T T"
Si      -0.04297302      -1.70527045       1.61484088       0.00000000
Si       1.47589029       1.70850172       0.69680175       0.00000000
Si      -2.26255231       0.74802865      -0.09378243       0.00000000
Si       1.11467583      -1.43966200      -1.59941049       0.00000000
Si       1.06802127       1.58606608       2.98320712       0.00000000
Si      -1.93004572       2.82283546      -1.15793013       0.00000000
Si      -2.57997273       1.17871834       2.26703167       0.00000000
Si       3.56721678       0.88878403       0.12145425       0.00000000
Si      -1.80492548      -3.11450206       0.82720562       0.00000000
Si       3.17272185      -0.21152239      -1.88806150       0.00000000
