10
Lattice="16.28999089631971 0.0 0.0 0.0 16.28999089631971 0.0 0.0 0.0 34.28971787722196" Properties=species:S:1:pos:R:3:initial_magmoms:R:1 pbc="T T T"
Si      -0.93664242      -1.81468971       1.21152499       0.00000000
Si       1.20332601       1.28402667       1.61991576       0.00000000
Si      -1.31369076       1.39629735      -1.43334530       0.00000000
Si       1.41679017      -1.31144274      -1.43591703       0.00000000
Si       2.52890847       2.68607439       0.08034085       0.00000000
Si       2.77169463      -2.56059252       0.09282232       0.00000000
Si      -2.82098817       2.59561602       0.03267812       0.00000000
Si      -2.65869090       0.03772764      -2.81282142       0.00000000
Si       0.05240493      -2.67361254      -2.81155270       0.00000000
Si       0.92188368      -3.47900643       1.49736424       0.00000000
