10
Lattice="16.28999089631971 0.0 0.0 0.0 16.28999089631971 0.0 0.0 0.0 34.28971787722196" Properties=species:S:1:pos:R:3:initial_magmoms:R:1 pbc="T T T"
Si      -0.19269441       1.18509750       1.96353321       0.00000000
Si       0.46289664       1.53777600      -1.69878215       0.00000000
Si       2.05667766      -1.11123864       0.54198358       0.00000000
Si      -1.95895395      -1.31716053      -0.59297242       0.00000000
Si       0.64835829      -2.47590081       1.89214198       0.00000000
Si       1.67801661       0.08426817      -3.10929049       0.00000000
Si       3.10691025      -1.08550044      -1.59971910       0.00000000
Si      -1.48716297       3.11051034       1.50974283       0.00000000
Si       1.99010043       1.60186086       2.88894464       0.00000000
Si      -1.53531621      -2.18854521       2.81107264       0.00000000
