10
Lattice="16.28999089631971 0.0 0.0 0.0 16.28999089631971 0.0 0.0 0.0 34.28971787722196" Properties=species:S:1:pos:R:3:initial_magmoms:R:1 pbc="T T T"
Si       0.19269441      -1.18509750      -1.96353321       0.00000000
Si      -1.29446856       1.92541284      -0.45379038       0.00000000
Si      -0.98513775      -1.24747191       1.75635462       0.00000000
Si       2.18279484       0.41676336       0.92541142       0.00000000
Si       2.24937207      -2.29633614      -1.42154963       0.00000000
Si      -2.40117858       2.16080334       1.72319645       0.00000000
Si      -1.34262180      -3.37364271       0.84753943       0.00000000
Si       0.65559105       0.35267850      -3.66231536       0.00000000
Si       0.32114106       3.47682357      -1.33308211       0.00000000
Si       0.84105270      -3.66099831      -0.07139123       0.00000000
