10
Lattice="16.28999089631971 0.0 0.0 0.0 16.28999089631971 0.0 0.0 0.0 34.28971787722196" Properties=species:S:1:pos:R:3:initial_magmoms:R:1 pbc="T T T"
Si      -0.31785048      -2.31223518       0.29650336       0.00000000
Si      -1.65462417       1.65130101       0.29585185       0.00000000
Si       1.67008338       0.18743274       1.65602285       0.00000000
Si       1.24644564       1.05881742      -1.74802221       0.00000000
Si      -0.93172284       1.95724350      -2.04394265       0.00000000
Si      -3.53826130       0.25524801       0.31923745       0.00000000
Si       1.77347601      -3.13195287      -0.27884414       0.00000000
Si      -0.72571950      -2.43467082       2.58290873       0.00000000
Si      -2.70049104      -1.15665516       2.15884755       0.00000000
Si       3.85375788      -0.09992286       0.73709219       0.00000000
