10
Lattice="16.28999089631971 0.0 0.0 0.0 16.28999089631971 0.0 0.0 0.0 34.28971787722196" Properties=species:S:1:pos:R:3:initial_magmoms:R:1 pbc="T T T"
Si       2.13548868       0.79146594      -0.54825861       0.00000000
Si      -1.28226735       1.68298506      -1.02684047       0.00000000
Si       0.09723501      -2.07440118      -1.16684546       0.00000000
Si       0.11098377      -0.18086787       2.42236418       0.00000000
Si      -0.43958565      -3.45201553       0.69632169       0.00000000
Si      -2.12732739      -0.94693770       2.70480875       0.00000000
Si       3.32645058      -1.29775914      -0.74144698       0.00000000
Si       0.86990229      -2.63153547       2.45490514       0.00000000
Si       3.07618731       1.55502711       1.50405074       0.00000000
Si      -2.64831417      -2.52843606       1.10286081       0.00000000
