10
Lattice="16.28999089631971 0.0 0.0 0.0 16.28999089631971 0.0 0.0 0.0 34.28971787722196" Properties=species:S:1:pos:R:3:initial_magmoms:R:1 pbc="T T T"
Si      -0.88060482       0.32454567      -2.10371004       0.00000000
Si      -1.79983323      -0.87790068       1.22452526       0.00000000
Si       0.83859291       1.82071701       1.24749938       0.00000000
Si       1.76019966      -1.71533700      -0.09772613       0.00000000
Si       0.71796546       2.35454031      -2.41118611       0.00000000
Si      -0.48811356      -2.21747625       2.63317166       0.00000000
Si       2.22205374       0.52196418       2.65043311       0.00000000
Si       2.49432480       2.82092301      -0.09769184       0.00000000
Si       3.51217287      -0.80751159       1.23739762       0.00000000
Si      -2.69172702       1.88872776      -1.97087160       0.00000000
