10
Lattice="16.28999089631971 0.0 0.0 0.0 16.28999089631971 0.0 0.0 0.0 34.28971787722196" Properties=species:S:1:pos:R:3:initial_magmoms:R:1 pbc="T T T"
Si      -1.33736013      -1.36187658      -1.37947612       0.00000000
Si       1.13647185      -1.43384580       1.51269175       0.00000000
Si       1.37824803       1.35332433      -1.38235646       0.00000000
Si      -1.54619793       1.24778142       1.46540620       0.00000000
Si      -2.69790093       2.69669547      -0.01995663       0.00000000
Si       2.74240521       2.68012854      -0.01731632       0.00000000
Si      -2.70612738      -2.72362284      -0.00099440       0.00000000
Si       2.72536587      -2.70754461       0.00082295       0.00000000
Si      -2.69750997      -0.00790065      -2.74184166       0.00000000
Si       0.01878237       2.70708849      -2.74194453       0.00000000
