10
Lattice="16.28999089631971 0.0 0.0 0.0 16.28999089631971 0.0 0.0 0.0 34.28971787722196" Properties=species:S:1:pos:R:3:initial_magmoms:R:1 pbc="T T T"
Si      -1.83757716       1.41260364      -0.51396887       0.00000000
Si      -0.46648044      -2.20679001       0.83917273       0.00000000
Si       1.26869778       1.14008823       1.70622303       0.00000000
Si       1.10671002      -0.23539050      -2.17698683       0.00000000
Si      -0.71776998       3.27919329      -1.38705415       0.00000000
Si       2.40117858      -2.16080334      -1.72319645       0.00000000
Si       1.41604083      -3.40827525       0.03315818       0.00000000
Si      -0.74321496       0.55208439      -3.57741398       0.00000000
Si       2.67856470       2.68056837       0.59228663       0.00000000
Si      -0.15042186       2.64916125       2.93914481       0.00000000
