10
Lattice="16.28999089631971 0.0 0.0 0.0 16.28999089631971 0.0 0.0 0.0 34.28971787722196" Properties=species:S:1:pos:R:3:initial_magmoms:R:1 pbc="T T T"
Si       0.23455971       1.81317474       1.49839293       0.00000000
Si       2.33880417      -0.44054676      -0.24794909       0.00000000
Si      -1.06707645       1.22974839      -1.76153237       0.00000000
Si      -1.54388475      -1.54043127       1.06572503       0.00000000
Si      -2.48619609       2.73882141      -0.52861059       0.00000000
Si       2.98392075      -1.38758220       1.85713216       0.00000000
Si      -2.10048147      -0.51166890       3.12561240       0.00000000
Si       2.47985928      -2.13819282      -1.95334916       0.00000000
Si       1.84783986       3.29098725       0.65177932       0.00000000
Si      -1.84477734       2.85829227       1.76959046       0.00000000
