10
Lattice="16.28999089631971 0.0 0.0 0.0 16.28999089631971 0.0 0.0 0.0 34.28971787722196" Properties=species:S:1:pos:R:3:initial_magmoms:R:1 pbc="T T T"
Si       1.35754344       1.34957763       1.37197696       0.00000000
Si      -1.36102950      -1.36404315       1.37238843       0.00000000
Si       1.32074433      -1.41625260      -1.37505275       0.00000000
Si      -1.22588766       1.43259147      -1.49741567       0.00000000
Si      -2.70604593       2.69224830       0.00066865       0.00000000
Si       2.70420516      -2.71500543       0.02788099       0.00000000
Si       2.70332550       2.72026710       0.00769805       0.00000000
Si      -2.71357191      -2.71453302      -0.01310897       0.00000000
Si      -0.00179190       2.70836847       2.73183935       0.00000000
Si       2.71629234      -0.00747711       2.73159932       0.00000000
