10
Lattice="16.28999089631971 0.0 0.0 0.0 16.28999089631971 0.0 0.0 0.0 34.28971787722196" Properties=species:S:1:pos:R:3:initial_magmoms:R:1 pbc="T T T"
Si       1.83228291       0.99302361      -1.04436252       0.00000000
Si      -1.15110027      -1.83202227      -0.88392084       0.00000000
Si      -1.61705943       1.80867123       0.30257264       0.00000000
Si      -0.20390193       1.30991541       2.35512201       0.00000000
Si       1.85785821       0.16895988       2.25136126       0.00000000
Si      -2.30280327      -0.38310822      -2.36928367       0.00000000
Si       0.42536448       2.36810241      -2.35673363       0.00000000
Si       1.31512428      -2.17660464       2.32151807       0.00000000
Si      -2.26194795       0.08177580       2.64377302       0.00000000
Si       3.45103650       1.23977718       0.65585980       0.00000000
