10
Lattice="16.28999089631971 0.0 0.0 0.0 16.28999089631971 0.0 0.0 0.0 34.28971787722196" Properties=species:S:1:pos:R:3:initial_magmoms:R:1 pbc="T T T"
Si      -1.08126504       2.11181931      -0.71291792       0.00000000
Si      -0.50844348       0.28329939       2.43141667       0.00000000
Si      -0.53388846      -2.44380951       0.24105685       0.00000000
Si       2.49580719      -0.14656113      -1.03517287       0.00000000
Si      -1.77943815      -0.82963341      -2.83010345       0.00000000
Si       2.93164614      -1.67987367       0.76219227       0.00000000
Si       0.97678098       3.33995892      -1.00156893       0.00000000
Si      -3.04673499      -1.73837106       1.46996674       0.00000000
Si      -2.23891389       1.84621086       2.50133345       0.00000000
Si       1.31603652      -3.23128440       1.64148400       0.00000000
