10
Lattice="16.28999089631971 0.0 0.0 0.0 16.28999089631971 0.0 0.0 0.0 34.28971787722196" Properties=species:S:1:pos:R:3:initial_magmoms:R:1 pbc="T T T"
Si       2.07933705      -1.04511753      -0.27119753       0.00000000
Si       0.26764470       2.04597513       1.11328489       0.00000000
Si      -1.26802989      -1.20914154       1.57725932       0.00000000
Si      -0.64141875      -0.11947086      -2.29820105       0.00000000
Si      -0.11404629       3.49779110      -0.74593894       0.00000000
Si      -0.25570413      -3.36996117       1.35602194       0.00000000
Si      -1.60640577       2.10706263       2.52447902       0.00000000
Si      -2.70651834      -1.16696673      -2.23469645       0.00000000
Si       2.26527111       1.77383439       2.43930331       0.00000000
Si       1.84477734      -2.85829227      -1.76959046       0.00000000
