10
Lattice="16.28999089631971 0.0 0.0 0.0 16.28999089631971 0.0 0.0 0.0 34.28971787722196" Properties=species:S:1:pos:R:3:initial_magmoms:R:1 pbc="T T T"
Si      -1.35565380       1.35503478      -1.35855938       0.00000000
Si      -1.35610992      -1.35774381       1.35773643       0.00000000
Si       1.35985662      -1.35545343      -1.35732495       0.00000000
Si       1.35930276       1.35692442       1.35742782       0.00000000
Si      -0.01034415      -2.70295802      -2.72414130       0.00000000
Si      -2.71202436      -0.00273672      -2.71637125       0.00000000
Si      -2.71360449       0.00022806       2.71495851       0.00000000
Si      -2.71409319       2.71456560       0.00041148       0.00000000
Si       0.00102627       2.71466334       2.71488993       0.00000000
Si       0.00158013      -2.71479280       2.71540428       0.00000000
