10
Lattice="16.28999089631971 0.0 0.0 0.0 16.28999089631971 0.0 0.0 0.0 34.28971787722196" Properties=species:S:1:pos:R:3:initial_magmoms:R:1 pbc="T T T"
Si       1.35441576      -1.35524662      -1.35855938       0.00000000
Si      -1.35773892      -1.35583306       1.35732495       0.00000000
Si       1.35671265       1.35869249       1.35657058       0.00000000
Si      -1.35681039       1.36100893      -1.35825077       0.00000000
Si       0.00022806       2.69492698      -2.72490253       0.00000000
Si       2.71461447      -2.71243168      -0.00120014       0.00000000
Si      -0.00053757      -2.71327876       2.71410127       0.00000000
Si      -2.71404432      -2.71423987      -0.00116585       0.00000000
Si       2.71463076       0.00110453       2.71430700       0.00000000
Si       2.71417464       2.71532206      -0.00113156       0.00000000
