10
Lattice="16.28999089631971 0.0 0.0 0.0 16.28999089631971 0.0 0.0 0.0 34.28971787722196" Properties=species:S:1:pos:R:3:initial_magmoms:R:1 pbc="T T T"
Si      -1.34416935      -1.33642997       1.37844743       0.00000000
Si      -1.35498591       1.35102744      -1.35639913       0.00000000
Si       1.35839052      -1.36163549      -1.35646771       0.00000000
Si       1.34311050       1.34892603       1.39696389       0.00000000
Si       0.06274908      -2.71150877       2.69081853       0.00000000
Si       2.49292386      -0.20290824       2.89155066       0.00000000
Si       0.00192222       2.71085148      -2.71317544       0.00000000
Si      -2.71270854      -0.00358380      -2.71310686       0.00000000
Si      -2.71446786       2.71212210       0.00665221       0.00000000
Si       2.71712313      -0.00394218      -2.71279826       0.00000000
