10
Lattice="16.28999089631971 0.0 0.0 0.0 16.28999089631971 0.0 0.0 0.0 34.28971787722196" Properties=species:S:1:pos:R:3:initial_magmoms:R:1 pbc="T T T"
Si       0.86778459       1.42387632       1.64124397       0.00000000
Si      -2.28705084      -0.21299175       0.60991155       0.00000000
Si      -0.28202877       0.93227670      -2.20020098       0.00000000
Si       1.65367935      -1.80502974      -0.13376426       0.00000000
Si      -0.11880297      -1.21399596      -3.08569915       0.00000000
Si       2.09220615      -1.63093851      -2.44160073       0.00000000
Si      -1.64815704      -2.66914256      -1.96010424       0.00000000
Si      -0.53177076       3.25668051       1.84639947       0.00000000
Si       0.47091132       0.35372106       3.81199007       0.00000000
Si       2.79609705       2.60477100       0.81242674       0.00000000
