10
Lattice="16.28999089631971 0.0 0.0 0.0 16.28999089631971 0.0 0.0 0.0 34.28971787722196" Properties=species:S:1:pos:R:3:initial_magmoms:R:1 pbc="T T T"
Si      -0.26384913      -2.26260674       0.57990803       0.00000000
Si       0.43852680       0.17409123      -2.30783646       0.00000000
Si       2.01311820       0.67728933       1.02546888       0.00000000
Si      -1.65367935       1.80502974       0.13376426       0.00000000
Si      -1.77248232       0.59103378      -2.95193488       0.00000000
Si      -1.01266785      -2.01426569       2.76440431       0.00000000
Si      -2.28452589      -2.72845187      -0.57154134       0.00000000
Si       2.40227001       2.70062136      -0.14099940       0.00000000
Si       1.71875790       2.17839654      -2.42747335       0.00000000
Si      -0.78589476       3.22890606       1.77500824       0.00000000
