10
Lattice="16.28999089631971 0.0 0.0 0.0 16.28999089631971 0.0 0.0 0.0 34.28971787722196" Properties=species:S:1:pos:R:3:initial_magmoms:R:1 pbc="T T T"
Si       1.35739683      -1.35747828       1.36095966       0.00000000
Si      -1.35734796       1.36006839       1.36041103       0.00000000
Si      -1.35654975      -1.37787336      -1.36281131       0.00000000
Si       1.38795687       1.35084825      -1.36423090       0.00000000
Si      -2.60793126      -0.01646919      -2.79896494       0.00000000
Si      -2.71358820      -2.71179141       0.00384045       0.00000000
Si       2.71336014       2.71454931       0.00528062       0.00000000
Si       2.71643895      -2.71544852      -0.00168020       0.00000000
Si      -2.71414206       0.00058644       2.71859322       0.00000000
Si      -0.00006516      -2.71410785       2.71866180       0.00000000
