10
Lattice="16.28999089631971 0.0 0.0 0.0 16.28999089631971 0.0 0.0 0.0 34.28971787722196" Properties=species:S:1:pos:R:3:initial_magmoms:R:1 pbc="T T T"
Si       1.35659862       1.35684297       1.35571333       0.00000000
Si      -1.35726651       1.35772263      -1.35711921       0.00000000
Si       1.35827649      -1.35773892      -1.35746211       0.00000000
Si      -1.35690813      -1.35982404       1.35677632       0.00000000
Si      -0.00192222      -2.71085148       2.71317544       0.00000000
Si      -2.71463076      -2.71443528       0.00006858       0.00000000
Si      -2.71445157       2.71498914      -0.00003429       0.00000000
Si      -0.00102627      -2.71466334      -2.71488993       0.00000000
Si      -2.71511946      -0.00009774      -2.71447845       0.00000000
Si       0.00032580       2.71295289       2.71687873       0.00000000
