10
Lattice="16.28999089631971 0.0 0.0 0.0 16.28999089631971 0.0 0.0 0.0 34.28971787722196" Properties=species:S:1:pos:R:3:initial_magmoms:R:1 pbc="T T T"
Si      -1.34311050      -1.34892603      -1.39696389       0.00000000
Si       1.37474568       1.36394541      -1.39370636       0.00000000
Si       1.14981336      -1.55183427       1.49458677       0.00000000
Si      -1.33828866       1.47621609       1.51406334       0.00000000
Si       2.46896127       0.00000000       2.84316784       0.00000000
Si      -2.68727985      -2.68535600      -0.01851646       0.00000000
Si      -2.69319312       2.72536587      -0.01467601       0.00000000
Si       2.72829807       2.71326240      -0.03624425       0.00000000
Si       2.72495862      -2.71709055       0.00404619       0.00000000
Si      -2.69809641       0.00210141      -2.75336302       0.00000000
