10
Lattice="16.28999089631971 0.0 0.0 0.0 16.28999089631971 0.0 0.0 0.0 34.28971787722196" Properties=species:S:1:pos:R:3:initial_magmoms:R:1 pbc="T T T"
Si       1.45990980       1.25094168       1.32245229       0.00000000
Si      -1.40831937      -1.36466217       1.35015840       0.00000000
Si       1.05023259       0.02573820      -2.14170269       0.00000000
Si      -2.05667766       1.11123864      -0.54198358       0.00000000
Si       2.51612082      -2.05412013      -0.07389438       0.00000000
Si       2.61775413       2.18141019      -0.50162456       0.00000000
Si      -2.24937207       2.29633614       1.42154963       0.00000000
Si      -1.48765167      -3.18645432      -0.09625129       0.00000000
Si       1.96569801      -0.39021066       2.89563113       0.00000000
Si      -0.06657723       2.71309950       2.34696105       0.00000000
