10
Lattice="16.28999089631971 0.0 0.0 0.0 16.28999089631971 0.0 0.0 0.0 34.28971787722196" Properties=species:S:1:pos:R:3:initial_magmoms:R:1 pbc="T T T"
Si      -1.46465019       1.40201514      -1.10529538       0.00000000
Si       1.42791624       1.24364376       1.48670013       0.00000000
Si       1.83674637       0.27264573      -1.63267154       0.00000000
Si      -0.47426706      -2.04700140       1.44239779       0.00000000
Si       0.31087836      -0.12595428       2.97272959       0.00000000
Si       3.26990799       0.45818883       0.24568597       0.00000000
Si      -2.28597570      -0.25448238      -2.58352595       0.00000000
Si      -1.28329362      -3.15744183      -0.61793535       0.00000000
Si      -0.88642035      -2.08728657      -2.78868144       0.00000000
Si       2.00972988       2.59058241      -1.70485144       0.00000000
