10
Lattice="16.28999089631971 0.0 0.0 0.0 16.28999089631971 0.0 0.0 0.0 34.28971787722196" Properties=species:S:1:pos:R:3:initial_magmoms:R:1 pbc="T T T"
Si      -1.29011913       1.32947577       1.41303549       0.00000000
Si      -1.75197321      -0.90782541      -1.33512376       0.00000000
Si       1.42617321      -1.38792429       1.38594659       0.00000000
Si       0.82963341       1.97042211      -1.20188614       0.00000000
Si      -2.67357996       2.62822860       0.01010176       0.00000000
Si      -3.51217287       0.80751159      -1.23739762       0.00000000
Si      -2.63440251      -0.03446964       2.75846876       0.00000000
Si       0.08131968       2.67761988       2.75918884       0.00000000
Si       2.85672843       2.64274299      -0.11688000       0.00000000
Si       0.07473852      -2.75035473       2.75973748       0.00000000
