10
Lattice="16.28999089631971 0.0 0.0 0.0 16.28999089631971 0.0 0.0 0.0 34.28971787722196" Properties=species:S:1:pos:R:3:initial_magmoms:R:1 pbc="T T T"
Si       1.35619137       1.35637056       1.35687918       0.00000000
Si      -1.35720135       1.35744570      -1.35677632       0.00000000
Si      -1.35692442      -1.35876519       1.35629626       0.00000000
Si       1.35729909      -1.35790182      -1.35766785       0.00000000
Si       0.00053757       2.71327876      -2.71410127       0.00000000
Si      -0.00415395      -2.71189404       2.71588433       0.00000000
Si      -2.71350675      -0.00096111      -2.71526712       0.00000000
Si      -2.71454931       2.71494832       0.00037719       0.00000000
Si       2.71516833       2.71438329       0.00020574       0.00000000
Si      -2.71321353       0.00254124       2.71653584       0.00000000
