10
Lattice="16.28999089631971 0.0 0.0 0.0 16.28999089631971 0.0 0.0 0.0 34.28971787722196" Properties=species:S:1:pos:R:3:initial_magmoms:R:1 pbc="T T T"
Si      -1.21757976      -1.77608241       0.82459960       0.00000000
Si      -1.48165695       1.67666454      -0.69813905       0.00000000
Si       1.32906852       0.10622709       2.00948146       0.00000000
Si       1.59653403       0.12328272      -1.92468294       0.00000000
Si       2.80126098       1.94885415      -1.01998252       0.00000000
Si       0.50422437      -3.44085525       0.89129313       0.00000000
Si      -2.53809603      -2.33390088      -1.02056544       0.00000000
Si       3.18792042       1.30157100       1.22462367       0.00000000
Si      -0.30009438       3.65517856      -0.44175468       0.00000000
Si       2.97281097      -1.87924698      -1.27537248       0.00000000
