10
Lattice="16.28999089631971 0.0 0.0 0.0 16.28999089631971 0.0 0.0 0.0 34.28971787722196" Properties=species:S:1:pos:R:3:initial_magmoms:R:1 pbc="T T T"
Si       0.69260193      -1.04883165       1.94830857       0.00000000
Si      -1.56431241       1.70098551       0.46322006       0.00000000
Si       1.97478783       1.00908405      -0.81482702       0.00000000
Si      -0.81244746      -1.56959037      -1.57893952       0.00000000
Si      -2.46708792      -0.07734492      -2.36599186       0.00000000
Si      -0.27170091       2.55829304       2.40515074       0.00000000
Si      -1.16919846       3.12857010      -1.42964201       0.00000000
Si      -3.63394062       0.50808510      -0.35294426       0.00000000
Si       2.37615714      -2.60799642       1.17966982       0.00000000
Si       0.74560959       0.69395400       3.65994937       0.00000000
