10
Lattice="16.28999089631971 0.0 0.0 0.0 16.28999089631971 0.0 0.0 0.0 34.28971787722196" Properties=species:S:1:pos:R:3:initial_magmoms:R:1 pbc="T T T"
Si      -0.69260193       1.04883165      -1.94830857       0.00000000
Si      -1.61328015      -1.47781251       0.84661361       0.00000000
Si       1.68355521      -1.55916477      -0.76863875       0.00000000
Si       0.05300766       1.74278565       1.71164080       0.00000000
Si       2.87529903      -1.45565811       1.29886095       0.00000000
Si      -0.63793269      -2.14672878       2.85273467       0.00000000
Si       1.28218590       2.05791570      -2.76313559       0.00000000
Si      -0.96430284       3.60712469       0.45684217       0.00000000
Si      -1.84783986      -3.29098725      -0.65177932       0.00000000
Si      -2.25691434       2.74981716      -1.48508851       0.00000000
