10
Lattice="16.28999089631971 0.0 0.0 0.0 16.28999089631971 0.0 0.0 0.0 34.28971787722196" Properties=species:S:1:pos:R:3:initial_magmoms:R:1 pbc="T T T"
Si       2.02067676       0.46584513       1.15144937       0.00000000
Si      -1.48035375      -0.40164624       1.84547365       0.00000000
Si      -0.05300766      -1.74278565      -1.71164080       0.00000000
Si      -1.01731050       1.86433904      -1.25479864       0.00000000
Si      -3.47798016      -0.12950550       0.51945523       0.00000000
Si       2.28452589       2.72845187       0.57154134       0.00000000
Si       1.27185804       0.71418618       3.33594565       0.00000000
Si      -1.66628781      -3.22059816      -0.86502720       0.00000000
Si      -0.74560959      -0.69395400      -3.65994937       0.00000000
Si       3.71801331      -1.05959934       0.25830459       0.00000000
