10
Lattice="16.28999089631971 0.0 0.0 0.0 16.28999089631971 0.0 0.0 0.0 34.28971787722196" Properties=species:S:1:pos:R:3:initial_magmoms:R:1 pbc="T T T"
Si       1.20593241       1.54022017       1.47796451       0.00000000
Si       0.30006180       1.65358228      -1.79938824       0.00000000
Si      -1.62908145      -1.20042639       1.51638959       0.00000000
Si       0.67572549      -1.78562835      -1.66216071       0.00000000
Si      -0.13644504      -0.19548000      -3.13332759       0.00000000
Si      -2.46197286       0.17959580      -2.86240438       0.00000000
Si       2.52120330       0.15516132       2.92187105       0.00000000
Si      -0.17604603      -2.55107916       2.90919414       0.00000000
Si       2.21754141       3.27864662       0.18386157       0.00000000
Si      -2.64033207      -2.96639271       0.19877761       0.00000000
