10
Lattice="16.28999089631971 0.0 0.0 0.0 16.28999089631971 0.0 0.0 0.0 34.28971787722196" Properties=species:S:1:pos:R:3:initial_magmoms:R:1 pbc="T T T"
Si       1.35836350      -1.35624570       1.36349710       0.00000000
Si      -1.35904212       1.35797024       1.36263986       0.00000000
Si      -1.36554183      -1.35860714      -1.36614427       0.00000000
Si       1.35553977       1.37461862      -1.37711699       0.00000000
Si       2.71376317      -2.71329891       0.00613786       0.00000000
Si       2.71370127       2.71461773       0.00267460       0.00000000
Si      -2.71880100      -2.71259844       0.00521204       0.00000000
Si      -2.71643895       2.71544852       0.00168020       0.00000000
Si      -0.00076563      -2.71370616       2.72010197       0.00000000
Si       2.71447342       0.00136022       2.72013626       0.00000000
