10
Lattice="16.28999089631971 0.0 0.0 0.0 16.28999089631971 0.0 0.0 0.0 34.28971787722196" Properties=species:S:1:pos:R:3:initial_magmoms:R:1 pbc="T T T"
Si      -1.35936792       1.35557235      -1.36322279       0.00000000
Si       1.35550719      -1.36012866      -1.36291418       0.00000000
Si       1.35334062       1.35197226       1.40066718       0.00000000
Si      -1.36557441      -1.36625859       1.39428929       0.00000000
Si       2.71039377      -2.71397597      -0.00051435       0.00000000
Si       2.71480055       2.71329498      -0.00092582       0.00000000
Si      -2.71282257      -2.71640660      -0.00226312       0.00000000
Si      -2.71578735       2.71477737      -0.00346326       0.00000000
Si      -0.00122175       2.71316466      -2.71969049       0.00000000
Si       2.71358386      -0.00193851      -2.71945047       0.00000000
