10
Lattice="16.28999089631971 0.0 0.0 0.0 16.28999089631971 0.0 0.0 0.0 34.28971787722196" Properties=species:S:1:pos:R:3:initial_magmoms:R:1 pbc="T T T"
Si      -1.92513591      -0.22576311       1.25644454       0.00000000
Si       0.28121427       2.24786850       0.51527188       0.00000000
Si       1.17621945      -1.93208752       0.67821671       0.00000000
Si       1.15307136       1.32016929      -1.62115019       0.00000000
Si       2.46202173      -0.38492293      -2.66126078       0.00000000
Si       3.19461561      -1.67415166      -0.63209701       0.00000000
Si      -0.02850750      -3.75765895      -0.22648371       0.00000000
Si      -1.18886049      -0.42902647       3.59064981       0.00000000
Si      -0.33249519       2.54853303      -2.93629876       0.00000000
Si      -3.72255822       1.11553431       0.49291497       0.00000000
