10
Lattice="16.28999089631971 0.0 0.0 0.0 16.28999089631971 0.0 0.0 0.0 34.28971787722196" Properties=species:S:1:pos:R:3:initial_magmoms:R:1 pbc="T T T"
Si      -2.21100912       0.41694255      -0.64409842       0.00000000
Si       0.37924749      -1.83607550      -1.40995970       0.00000000
Si      -0.43852680      -0.17409123       2.30783646       0.00000000
Si       1.28023110       2.00430531      -0.11963689       0.00000000
Si      -2.37423492       2.56321521       0.24139975       0.00000000
Si      -2.09220615       1.63093851       2.44160073       0.00000000
Si       1.84805163      -3.20330537      -0.16181327       0.00000000
Si       1.57459140       0.50319810       3.33330534       0.00000000
Si      -0.36272943       3.70779948      -0.39803527       0.00000000
Si      -0.70237593      -2.43669797       2.88774449       0.00000000
