10
Lattice="16.28999089631971 0.0 0.0 0.0 16.28999089631971 0.0 0.0 0.0 34.28971787722196" Properties=species:S:1:pos:R:3:initial_magmoms:R:1 pbc="T T T"
Si      -1.76309928      -1.05743277      -1.14822755       0.00000000
Si       1.35428692       1.41882642      -1.42395132       0.00000000
Si      -1.42237764       1.24398585       1.59337550       0.00000000
Si       1.26164421      -1.44769230       1.57880922       0.00000000
Si       2.55732379       2.64735306       0.20773751       0.00000000
Si      -3.47815935       0.75189753      -1.22373355       0.00000000
Si      -2.69301393       2.67294465       0.30659825       0.00000000
Si       2.62708734      -2.83664775       0.20863248       0.00000000
Si      -2.77470828      -2.79585922       0.14587540       0.00000000
Si      -0.09697437       2.60768691       2.96288702       0.00000000
