10
Lattice="16.28999089631971 0.0 0.0 0.0 16.28999089631971 0.0 0.0 0.0 34.28971787722196" Properties=species:S:1:pos:R:3:initial_magmoms:R:1 pbc="T T T"
Si       1.27063629      -1.42895880       1.28677725       0.00000000
Si       1.11703788       1.36959804      -1.48602946       0.00000000
Si      -1.48393755       1.29821526       1.28112630       0.00000000
Si      -0.78514542      -1.92104712      -1.53033180       0.00000000
Si      -0.31087836       0.12595428      -2.97272959       0.00000000
Si       2.56663611       2.61203634      -0.06373433       0.00000000
Si       2.59603956      -0.06525774       2.65628877       0.00000000
Si      -0.11738574       2.65655691       2.65556869       0.00000000
Si       2.69301393      -2.67294465      -0.30659825       0.00000000
Si      -0.11732058      -2.77980705       2.65100815       0.00000000
