10
Lattice="16.28999089631971 0.0 0.0 0.0 16.28999089631971 0.0 0.0 0.0 34.28971787722196" Properties=species:S:1:pos:R:3:initial_magmoms:R:1 pbc="T T T"
Si       1.34975682       1.33978734      -1.36772160       0.00000000
Si      -1.35814617       1.35145098       1.35722208       0.00000000
Si       1.35803214      -1.36348929       1.35653629       0.00000000
Si      -1.36655181      -1.35834165      -1.37444239       0.00000000
Si       0.11738574      -2.65655691      -2.65556869       0.00000000
Si       2.68402185      -0.04452057      -2.71930302       0.00000000
Si      -2.71140534       2.70720252      -0.00120014       0.00000000
Si       0.00004887       2.70964602       2.71396411       0.00000000
Si       2.71590138       2.70987408      -0.00267460       0.00000000
Si      -2.71466334      -0.00475668       2.71440987       0.00000000
