10
Lattice="16.28999089631971 0.0 0.0 0.0 16.28999089631971 0.0 0.0 0.0 34.28971787722196" Properties=species:S:1:pos:R:3:initial_magmoms:R:1 pbc="T T T"
Si      -1.35627282      -1.35738054      -1.35917660       0.00000000
Si       1.35881406       1.35808101      -1.35938234       0.00000000
Si      -1.36093176       1.36148562       1.35698205       0.00000000
Si       1.36078515      -1.36034532       1.35907373       0.00000000
Si       2.70909216       0.02169828       2.70330000       0.00000000
Si      -2.71370223       2.71461447      -0.00260602       0.00000000
Si       2.71590138       2.71295289      -0.00339468       0.00000000
Si      -2.71419093       0.00107514      -2.71612436       0.00000000
Si       2.71616202      -2.71443528      -0.00212596       0.00000000
Si       0.00127062      -2.71446786      -2.71615865       0.00000000
