10
Lattice="16.28999089631971 0.0 0.0 0.0 16.28999089631971 0.0 0.0 0.0 34.28971787722196" Properties=species:S:1:pos:R:3:initial_magmoms:R:1 pbc="T T T"
Si       1.05743277       1.59813045       1.30976509       0.00000000
Si      -1.33550307       1.36456443      -1.32138931       0.00000000
Si      -0.79715115      -1.67809806       1.42288693       0.00000000
Si       1.39242033      -1.33449309      -1.33901423       0.00000000
Si      -2.49974937      -2.57404806       0.03689576       0.00000000
Si       2.65036671      -2.67169032       0.10304066       0.00000000
Si      -2.77847127       2.53531044       0.21952290       0.00000000
Si      -2.67760359       0.00529425      -2.68533218       0.00000000
Si       0.04378752       2.71914309      -2.68042874       0.00000000
Si       0.04411332      -2.71653669      -2.68324050       0.00000000
