10
Lattice="16.28999089631971 0.0 0.0 0.0 16.28999089631971 0.0 0.0 0.0 34.28971787722196" Properties=species:S:1:pos:R:3:initial_magmoms:R:1 pbc="T T T"
Si      -1.80703341       1.44034551       0.22164886       0.00000000
Si       1.70222355       1.01423169      -1.23953970       0.00000000
Si       0.92271447      -0.55560303       2.08903365       0.00000000
Si      -0.30843486      -2.03284539      -1.20281540       0.00000000
Si       1.86165378      -2.63914290      -0.71308937       0.00000000
Si      -3.09772269       0.04916322       1.59063232       0.00000000
Si       2.72243434      -0.94693770      -2.07569494       0.00000000
Si       2.46695501      -2.18437497       1.48395695       0.00000000
Si       2.30601470       1.28752902       2.50160777       0.00000000
Si       0.58764546       2.53464255      -2.65622019       0.00000000
