10
Lattice="16.28999089631971 0.0 0.0 0.0 16.28999089631971 0.0 0.0 0.0 34.28971787722196" Properties=species:S:1:pos:R:3:initial_magmoms:R:1 pbc="T T T"
Si      -1.35619137      -1.35637056      -1.35687918       0.00000000
Si      -1.35239580       1.35886989       1.36061677       0.00000000
Si       1.35897696       1.35801273      -1.35667345       0.00000000
Si       1.36104579      -1.35441576       1.36390858       0.00000000
Si      -2.71339272       0.00107514      -2.71365550       0.00000000
Si      -2.71311579      -2.71513575      -0.00058293       0.00000000
Si       0.00110772      -2.71427238      -2.71454703       0.00000000
Si       0.00105885       2.71560069      -2.71440987       0.00000000
Si      -2.70524772      -0.02702511       2.72469679       0.00000000
Si      -2.71482624       2.71554693      -0.00030861       0.00000000
