10
Lattice="16.28999089631971 0.0 0.0 0.0 16.28999089631971 0.0 0.0 0.0 34.28971787722196" Properties=species:S:1:pos:R:3:initial_magmoms:R:1 pbc="T T T"
Si       1.09874488       0.44202915       2.00677257       0.00000000
Si       1.93580327       0.15288165      -1.32365243       0.00000000
Si      -1.69565868       1.67150061      -0.02996923       0.00000000
Si      -0.66489264      -2.27699991      -0.47978200       0.00000000
Si      -0.69040278      -0.44002548       3.32164683       0.00000000
Si      -1.91076813      -1.50931737      -2.52996538       0.00000000
Si       2.65475591      -1.40519169       1.87407129       0.00000000
Si      -3.55451058       0.47615670       0.75488856       0.00000000
Si       1.66062282       2.81577832       1.77740852       0.00000000
Si       1.01051498      -3.13025382       1.75762334       0.00000000
