10
Lattice="16.28999089631971 0.0 0.0 0.0 16.28999089631971 0.0 0.0 0.0 34.28971787722196" Properties=species:S:1:pos:R:3:initial_magmoms:R:1 pbc="T T T"
Si      -1.35610992      -1.35760591      -1.35663916       0.00000000
Si       1.35708895      -1.35769045       1.35766785       0.00000000
Si       1.35871795       1.35742452      -1.35674203       0.00000000
Si      -1.35802575       1.35771774       1.35804504       0.00000000
Si       2.71282420      -0.00132112       2.71454703       0.00000000
Si       2.71277533       0.00158339      -2.71543857       0.00000000
Si      -0.00071024      -2.71465912      -2.71399840       0.00000000
Si       2.71404595      -2.71470799       0.00010287       0.00000000
Si       2.71453465       2.71493538       0.00058293       0.00000000
Si      -0.00088292       2.71436523       2.71540428       0.00000000
