10
Lattice="16.28999089631971 0.0 0.0 0.0 16.28999089631971 0.0 0.0 0.0 34.28971787722196" Properties=species:S:1:pos:R:3:initial_magmoms:R:1 pbc="T T T"
Si       1.45078740      -1.71854613      -0.55203048       0.00000000
Si      -2.23649320      -0.04483008      -0.61755816       0.00000000
Si       0.24959538       2.19844953      -0.73596063       0.00000000
Si      -0.54188685      -0.15799671       2.30344738       0.00000000
Si      -1.30067505       3.12269526       0.69858481       0.00000000
Si      -0.67649112       2.15044290       2.68433777       0.00000000
Si       3.25700631      -1.03330728       0.79487039       0.00000000
Si       0.34534800      -3.51692955       0.69916774       0.00000000
Si      -3.09727376      -1.73703528       0.74504741       0.00000000
Si      -1.02612339       2.47158396      -2.64565895       0.00000000
