10
Lattice="16.28999089631971 0.0 0.0 0.0 16.28999089631971 0.0 0.0 0.0 34.28971787722196" Properties=species:S:1:pos:R:3:initial_magmoms:R:1 pbc="T T T"
Si      -0.60530123      -0.45476793      -2.19704632       0.00000000
Si      -1.54424054       1.62877194       0.60507670       0.00000000
Si       1.95008567       1.12427064      -0.63864635       0.00000000
Si       0.70464350      -2.03937768       1.00811827       0.00000000
Si       0.48076514      -2.45757456      -2.48243980       0.00000000
Si       3.47065943       0.03494205       0.78067444       0.00000000
Si      -2.46695501       2.18437497      -1.48395695       0.00000000
Si      -0.16094031       3.47190399       1.01765082       0.00000000
Si       2.92878887      -2.16559260       0.18029544       0.00000000
Si      -0.11784023      -3.62654496      -0.46997514       0.00000000
