10
Lattice="16.28999089631971 0.0 0.0 0.0 16.28999089631971 0.0 0.0 0.0 34.28971787722196" Properties=species:S:1:pos:R:3:initial_magmoms:R:1 pbc="T T T"
Si      -1.36662837      -1.34143263       1.37446296       0.00000000
Si       1.34685720       1.37480988       1.37302279       0.00000000
Si      -1.35940865       1.35752945      -1.37896863       0.00000000
Si       1.48015827      -1.25965683      -1.49808432       0.00000000
Si       0.38973825       2.39015744      -2.61911595       0.00000000
Si       2.28048597       0.62732694      -2.84517863       0.00000000
Si      -0.09464490      -2.54255949      -2.82786231       0.00000000
Si       2.70604593      -2.69224830      -0.00066865       0.00000000
Si      -2.72773511      -2.68866450       0.01193283       0.00000000
Si      -0.96488928      -0.54025785      -3.67512742       0.00000000
