10
Lattice="16.28999089631971 0.0 0.0 0.0 16.28999089631971 0.0 0.0 0.0 34.28971787722196" Properties=species:S:1:pos:R:3:initial_magmoms:R:1 pbc="T T T"
Si      -1.35539968       1.35705321       1.35735924       0.00000000
Si      -1.36110673      -1.34723187      -1.36253013       0.00000000
Si       1.35682179      -1.35697329       1.35759927       0.00000000
Si       1.36662837       1.34143263      -1.37446296       0.00000000
Si       2.71164480      -2.71485882      -0.00274318       0.00000000
Si      -2.71376317       2.71329891      -0.00613786       0.00000000
Si      -2.71452880      -0.00040725       2.71396411       0.00000000
Si       0.00071024       2.71465912       2.71399840       0.00000000
Si       2.71475619      -0.00004887       2.71410127       0.00000000
Si      -2.71436590      -2.71500543      -0.00257173       0.00000000
