10
Lattice="16.28999089631971 0.0 0.0 0.0 16.28999089631971 0.0 0.0 0.0 34.28971787722196" Properties=species:S:1:pos:R:3:initial_magmoms:R:1 pbc="T T T"
Si       1.35273789       1.34522820       1.36435435       0.00000000
Si       1.35312885      -1.35936792      -1.35753069       0.00000000
Si      -1.36200527       1.35381303      -1.35629626       0.00000000
Si      -1.35714922      -1.38626271       1.35945091       0.00000000
Si       2.50444089      -0.10368585       2.84971718       0.00000000
Si       0.00047241       2.57655672       2.83552123       0.00000000
Si       2.71174743       2.71149714       0.00576068       0.00000000
Si       2.71189404      -0.00092853      -2.71430700       0.00000000
Si       2.71327869      -2.71334385       0.00483485       0.00000000
Si      -0.00257382       2.71361617      -2.71464990       0.00000000
