10
Lattice="16.28999089631971 0.0 0.0 0.0 16.28999089631971 0.0 0.0 0.0 34.28971787722196" Properties=species:S:1:pos:R:3:initial_magmoms:R:1 pbc="T T T"
Si      -0.85820607      -1.74443094      -1.41088552       0.00000000
Si      -1.71408267       1.82623932       0.08877613       0.00000000
Si       1.80902079       1.02765465      -1.41050833       0.00000000
Si       1.77943815       0.82963341       2.83010345       0.00000000
Si      -2.05256932      -0.25492221      -2.90077459       0.00000000
Si       1.24554969      -1.61417610       3.07116030       0.00000000
Si       0.69817311       2.94145272       2.11718552       0.00000000
Si      -2.09863093      -3.19596768       0.09625129       0.00000000
Si      -3.40266874       1.04510124      -1.50881701       0.00000000
Si       0.65731779       2.47656870      -2.89587116       0.00000000
