10
Lattice="16.290000149 0.0 0.0 0.0 16.290000149 0.0 0.0 0.0 29.1751946751" Properties=species:S:1:pos:R:3:initial_magmoms:R:1 pbc="T T T"
Si      -1.34359921      -1.37836207       1.31361314       0.00000000
Si       1.30414483      -1.34586352      -1.43209361       0.00000000
Si       1.22953663       1.43269248       1.42719217       0.00000000
Si      -1.40035357       1.34149454      -1.36026428       0.00000000
Si       0.20160504      -2.70290198       2.49885542       0.00000000
Si       2.64230318       2.71740008       0.04574671       0.00000000
Si      -2.70834284      -0.00900837       2.65797694       0.00000000
Si      -0.29118375       2.74984977       2.62451299       0.00000000
Si       2.65913075       0.00928530      -2.76645031       0.00000000
Si      -0.06537177       2.70601337      -2.72933946       0.00000000
