10
Lattice="16.290000149 0.0 0.0 0.0 16.290000149 0.0 0.0 0.0 29.1751946751" Properties=species:S:1:pos:R:3:initial_magmoms:R:1 pbc="T T T"
H        0.44424459       1.28707291      -0.66160589       0.00000000
Si      -0.82616365       0.96902695       1.94470178       0.00000000
Si      -1.87781348      -0.70385833      -1.27215519       0.00000000
Si       2.01163583      -1.35927019      -0.08784651       0.00000000
H        0.96801697      -0.24628851      -2.48683524       0.00000000
H       -0.64050652      -2.65715966      -1.06994191       0.00000000
Si       3.16566179       0.69802651      -0.68129915       0.00000000
Si      -2.32259564       2.29014596       0.64981911       0.00000000
Si       0.79933402      -2.94651894      -1.51188776       0.00000000
Si       2.00231795       0.86009572      -2.70063107       0.00000000
