10
Lattice="16.290000149 0.0 0.0 0.0 16.290000149 0.0 0.0 0.0 29.1751946751" Properties=species:S:1:pos:R:3:initial_magmoms:R:1 pbc="T T T"
Si      -1.07015527      -1.16963830       1.71077507       0.00000000
Si       0.88282027      -1.78051331      -1.27854456       0.00000000
Si       1.87426226       1.45813420       0.15346152       0.00000000
Si      -1.59609421       1.30559464      -1.20992450       0.00000000
H        0.50282343       2.33357510       1.82730079       0.00000000
H       -1.22523607      -0.37581030       2.98908622       0.00000000
H        2.59729391       1.52648704       1.47498114       0.00000000
Si       2.00401211      -0.33824556      -2.82978966       0.00000000
Si      -3.27766206      -1.08699913       0.90008393       0.00000000
Si      -0.27833094       2.66012444      -2.59519192       0.00000000
