10
Lattice="16.290000149 0.0 0.0 0.0 16.290000149 0.0 0.0 0.0 29.1751946751" Properties=species:S:1:pos:R:3:initial_magmoms:R:1 pbc="T T T"
Si       1.34853671      -1.33563340       1.37534785       0.00000000
Si      -1.27232460       1.36099693       1.42249497       0.00000000
Si       1.34213474       1.36858807      -1.36297757       0.00000000
Si      -1.37925639      -1.36150192      -1.33406495       0.00000000
Si       2.66146185       0.13137885       2.65538034       0.00000000
Si       0.01712079      -2.69892397      -2.68213400       0.00000000
Si      -2.66365775       2.71710686       0.07244201       0.00000000
Si      -2.68336865       0.01904301      -2.70909188       0.00000000
Si      -0.06030884      -2.63136771       2.76315351       0.00000000
Si       2.72008956       0.02270826      -2.72047020       0.00000000
