10
Lattice="16.290000149 0.0 0.0 0.0 16.290000149 0.0 0.0 0.0 29.1751946751" Properties=species:S:1:pos:R:3:initial_magmoms:R:1 pbc="T T T"
Si       1.35557236       1.33361344      -1.32305423       0.00000000
Si       1.43247745      -1.32887305       1.27451838       0.00000000
Si      -1.33788142       1.43855362       1.28694701       0.00000000
Si      -1.30784266      -1.29122686      -1.47081492       0.00000000
Si      -0.04712697       2.69868287      -2.58157585       0.00000000
Si       0.05277960      -2.64722276       2.63842956       0.00000000
Si      -2.70031187       0.07307694       2.61459342       0.00000000
Si      -2.67462254      -2.64925901      -0.12557004       0.00000000
Si       2.76773619       0.07496658       2.61415579       0.00000000
Si       2.77620699      -2.61029333      -0.18879268       0.00000000
