10
Lattice="16.290000149 0.0 0.0 0.0 16.290000149 0.0 0.0 0.0 29.1751946751" Properties=species:S:1:pos:R:3:initial_magmoms:R:1 pbc="T T T"
Si       1.35513253      -1.36655182       1.33724505       0.00000000
Si      -1.35549091      -1.36790389      -1.33785773       0.00000000
Si       1.37492488       1.33678999      -1.36195644       0.00000000
Si      -1.37795482       1.34587981       1.35749263       0.00000000
Si       2.64878660       0.06962346       2.65068314       0.00000000
Si       0.02889846      -2.72243858      -2.67276876       0.00000000
Si      -2.68360648      -0.00718389      -2.71238867       0.00000000
Si      -2.70722046       2.70505226      -0.00793565       0.00000000
Si      -2.70296877      -2.72163223       0.03833621       0.00000000
Si       0.03191211       2.71977842      -2.70591178       0.00000000
