10
Lattice="16.290000149 0.0 0.0 0.0 16.290000149 0.0 0.0 0.0 29.1751946751" Properties=species:S:1:pos:R:3:initial_magmoms:R:1 pbc="T T T"
H       -0.19023462       1.35022110       0.67426792       0.00000000
Si       0.84240478      -1.23671238       1.71037537       0.00000000
Si       1.89741035       0.03226886      -1.33651567       0.00000000
Si      -1.90073351      -0.52322992      -1.28898928       0.00000000
Si       0.64725058       1.14636804      -2.93735860       0.00000000
Si      -2.62156601       1.67517402      -0.89276096       0.00000000
Si       1.87084136       0.62892107       2.65889304       0.00000000
Si      -0.65989162       2.71848337      -1.77548565       0.00000000
Si       2.33580683      -2.25975697      -1.03744075       0.00000000
Si      -0.99566110      -2.24978749       2.65029511       0.00000000
