10
Lattice="16.290000149 0.0 0.0 0.0 16.290000149 0.0 0.0 0.0 29.1751946751" Properties=species:S:1:pos:R:3:initial_magmoms:R:1 pbc="T T T"
Si       1.34359921       1.37836207      -1.31361314       0.00000000
Si      -1.36474363       1.36935370       1.34436380       0.00000000
Si       1.54520425      -1.32453991       1.18524228       0.00000000
Si      -1.40879179      -1.32528925      -1.35638398       0.00000000
Si       2.57313584       2.81105455       0.11357903       0.00000000
Si       2.62782137      -2.74476729      -0.31272891       0.00000000
Si      -0.05675436       2.71985662      -2.67387742       0.00000000
Si       2.64774404       0.03249855      -2.74570675       0.00000000
Si      -2.71060715       0.07856667       2.71591887       0.00000000
Si      -2.78505246      -2.64557747       0.00723545       0.00000000
