10
Lattice="16.290000149 0.0 0.0 0.0 16.290000149 0.0 0.0 0.0 29.1751946751" Properties=species:S:1:pos:R:3:initial_magmoms:R:1 pbc="T T T"
Si       0.89836093       0.06778269      -1.22465797       0.00000000
H       -1.26363160      -1.76578715      -0.45624169       0.00000000
H        1.89602570       0.44448894       1.23977072       0.00000000
Si      -1.79963777      -2.01671831       0.93065954       0.00000000
Si       0.01049076       1.49490073      -2.81727350       0.00000000
Si       1.18561879       2.95340472       0.23874062       0.00000000
Si       1.23507523      -2.06244434      -2.14125506       0.00000000
Si       2.78529681       1.41309235      -0.84371745       0.00000000
Si      -2.65636145      -0.13872564       2.04932402       0.00000000
H       -2.89398369      -0.90508870      -1.61788125       0.00000000
