10
Lattice="16.290000149 0.0 0.0 0.0 16.290000149 0.0 0.0 0.0 29.1751946751" Properties=species:S:1:pos:R:3:initial_magmoms:R:1 pbc="T T T"
Si       1.38813607       1.34745994       1.27604424       0.00000000
Si       1.26183970      -1.39545028      -1.36736260       0.00000000
Si      -1.30772863       1.26513028      -1.47390749       0.00000000
Si      -1.41040450      -1.39911553       1.25848077       0.00000000
Si      -2.15132258      -0.64459531      -2.56937479       0.00000000
Si      -0.45784674      -2.33381945      -2.65129669       0.00000000
Si      -0.03557736       2.70993926       2.54560284       0.00000000
Si       2.72035949      -0.05945850       2.58714832       0.00000000
Si       2.58830183      -0.07280001      -2.73062463       0.00000000
Si       2.69009804       2.66186747      -0.18640324       0.00000000
