10
Lattice="16.290000149 0.0 0.0 0.0 16.290000149 0.0 0.0 0.0 29.1751946751" Properties=species:S:1:pos:R:3:initial_magmoms:R:1 pbc="T T T"
Si       1.23844726      -1.37080351       1.44163098       0.00000000
Si      -1.85932433      -0.90383437      -1.14144448       0.00000000
Si      -1.29681433       1.43611012       1.35566335       0.00000000
Si       1.91860364       0.79237819      -1.13254021       0.00000000
H       -0.67841335       1.56838492      -1.96953570       0.00000000
H        0.67614904      -1.90008191      -1.81131862       0.00000000
Si       1.35718507       1.25662690      -3.29654026       0.00000000
Si      -3.47877840       0.85250458      -1.22667077       0.00000000
Si       2.65952171       0.03785796       2.69531535       0.00000000
Si       2.73722502      -2.62138194       0.17330649       0.00000000
