10
Lattice="16.290000149 0.0 0.0 0.0 16.290000149 0.0 0.0 0.0 29.1751946751" Properties=species:S:1:pos:R:3:initial_magmoms:R:1 pbc="T T T"
Si      -1.38813607      -1.34745994      -1.27604424       0.00000000
Si       1.33222342      -1.40691844       1.31110407       0.00000000
Si      -1.42371343       1.36247932       1.26955860       0.00000000
Si       1.30196197       1.31440753      -1.46244748       0.00000000
Si       2.62916530       2.67783167      -0.08522074       0.00000000
Si       2.66483714      -0.03119535       2.66016508       0.00000000
Si      -0.06704964       2.71103069       2.62559247       0.00000000
Si      -0.12629637      -2.74291022      -2.64340684       0.00000000
Si      -2.74743885      -0.02435355       2.65325055       0.00000000
Si      -0.05240493      -2.73909836       2.67863297       0.00000000
