10
Lattice="16.290000149 0.0 0.0 0.0 16.290000149 0.0 0.0 0.0 29.1751946751" Properties=species:S:1:pos:R:3:initial_magmoms:R:1 pbc="T T T"
Si       0.82616365      -0.96902695      -1.94470178       0.00000000
Si      -1.31535235      -1.34091136       1.41864384       0.00000000
Si       1.59617566       1.14072355       1.33111826       0.00000000
Si      -1.49643199       1.32111901      -1.29488267       0.00000000
H        1.27040824       0.31804596      -2.60630767       0.00000000
H        0.69888988       1.88600735       2.31026697       0.00000000
Si      -1.05164983      -1.67288528      -3.21685696       0.00000000
Si      -2.51283026       0.16531092       2.82197070       0.00000000
Si      -2.51698421       2.81975016       0.17286303       0.00000000
Si       0.16961148      -2.51887385       2.86380793       0.00000000
