10
Lattice="16.290000149 0.0 0.0 0.0 16.290000149 0.0 0.0 0.0 29.1751946751" Properties=species:S:1:pos:R:3:initial_magmoms:R:1 pbc="T T T"
Si       1.38678400       1.36150192      -1.30366440       0.00000000
Si       1.38065896      -1.34553772       1.33826618       0.00000000
Si      -1.31870809       1.36933741       1.38929360       0.00000000
Si      -1.33164235      -1.34574949      -1.41359653       0.00000000
Si       0.01495422       2.72094968      -2.61739424       0.00000000
Si       0.01272249      -2.69053787       2.68073359       0.00000000
Si      -2.67798317      -2.69400764      -0.04475475       0.00000000
Si      -2.66500982       2.73031643       0.03398910       0.00000000
Si       2.71296920       0.01275507      -2.68793986       0.00000000
Si      -2.69419824       0.02104668       2.74030933       0.00000000
