10
Lattice="16.290000149 0.0 0.0 0.0 16.290000149 0.0 0.0 0.0 29.1751946751" Properties=species:S:1:pos:R:3:initial_magmoms:R:1 pbc="T T T"
Si       1.35311257       1.40204773      -1.31679032       0.00000000
Si      -1.35164647       1.36852291       1.35868882       0.00000000
Si       1.37476198      -1.34509789       1.36335685       0.00000000
Si      -1.36730116      -1.36603054      -1.36080985       0.00000000
Si       2.73632907       0.05017320      -2.64137041       0.00000000
Si      -2.70874195      -2.69695613       0.02234820       0.00000000
Si       2.69296508       2.72702747       0.08434549       0.00000000
Si      -2.69798729       0.02026476       2.72753060       0.00000000
Si       0.02153538      -2.69179220       2.73829625       0.00000000
Si      -2.71708732       2.71617833      -0.01391657       0.00000000
