10
Lattice="16.290000149 0.0 0.0 0.0 16.290000149 0.0 0.0 0.0 29.1751946751" Properties=species:S:1:pos:R:3:initial_magmoms:R:1 pbc="T T T"
Si       1.38857102      -1.34908894       1.33091403       0.00000000
Si       1.37549015       1.34829073      -1.35101574       0.00000000
Si      -1.31455727      -1.36611199      -1.39416585       0.00000000
Si      -1.37005906       1.33975477       1.38004506       0.00000000
Si      -2.66229590      -2.72026712      -0.03681910       0.00000000
Si       0.02873067      -2.69995349       2.68414709       0.00000000
Si      -2.70240188       2.70614858       0.00790648       0.00000000
Si       0.02918842       2.70926975      -2.70632023       0.00000000
Si      -2.68293533      -0.00904095      -2.73505780       0.00000000
Si       2.70692073      -2.71158455      -0.05957575       0.00000000
