10
Lattice="16.290000149 0.0 0.0 0.0 16.290000149 0.0 0.0 0.0 29.1751946751" Properties=species:S:1:pos:R:3:initial_magmoms:R:1 pbc="T T T"
Si       1.38601837      -1.34972425      -1.35518779       0.00000000
Si      -1.35163018      -1.38385180       1.35612140       0.00000000
Si       1.40770036       1.36620973       1.31740592       0.00000000
Si      -1.33131655       1.31530348      -1.44297595       0.00000000
Si      -2.68944644      -2.67186953      -0.07597221       0.00000000
Si       2.70068654      -0.04795776       2.67317721       0.00000000
H       -1.11026125       2.94723570       2.14000053       0.00000000
Si       0.07415208       2.43550163       2.94042200       0.00000000
Si       2.72826551       2.69128721      -0.12396540       0.00000000
Si       0.04266351      -2.67706604      -2.76280341       0.00000000
