10
Lattice="16.290000149 0.0 0.0 0.0 16.290000149 0.0 0.0 0.0 29.1751946751" Properties=species:S:1:pos:R:3:initial_magmoms:R:1 pbc="T T T"
Si      -1.37039626       1.34457661       1.34042514       0.00000000
Si      -1.38580660      -1.34732962      -1.32837579       0.00000000
Si       1.36262593      -1.36609570       1.33657402       0.00000000
Si       1.36940257       1.36023130      -1.33826618       0.00000000
Si       0.00791694       2.67986792       2.68528492       0.00000000
Si      -0.05038497      -2.75694406      -2.62153712       0.00000000
Si       2.69733080      -0.00027693      -2.70200230       0.00000000
Si      -0.00087966      -2.71315654       2.68861089       0.00000000
Si      -2.72023454      -0.01989009       2.69768438       0.00000000
Si      -2.71551044       2.70389567      -0.02937942       0.00000000
