10
Lattice="16.290000149 0.0 0.0 0.0 16.290000149 0.0 0.0 0.0 29.1751946751" Properties=species:S:1:pos:R:3:initial_magmoms:R:1 pbc="T T T"
Si      -0.53600616      -0.25093116       1.38690123       0.00000000
H       -0.71117254      -0.88842403      -1.62666298       0.00000000
H       -1.63035208       0.86069845      -1.16163955       0.00000000
H        1.26363160       1.76578715       0.45624169       0.00000000
Si       0.43652313      -0.96879889      -2.61135497       0.00000000
Si       2.16199253       1.83356984      -0.76841628       0.00000000
Si       2.49870683      -0.29665719      -1.68501337       0.00000000
Si       1.15313653      -1.17830458       2.70293591       0.00000000
Si      -2.34870851      -1.83739799       1.27209684       0.00000000
Si      -1.39272985       1.62706150       2.50556572       0.00000000
