10
Lattice="16.290000149 0.0 0.0 0.0 16.290000149 0.0 0.0 0.0 29.1751946751" Properties=species:S:1:pos:R:3:initial_magmoms:R:1 pbc="T T T"
Si      -1.41965722       1.37231848      -1.25348306       0.00000000
Si      -1.30207600      -1.23732325       1.49957583       0.00000000
Si       1.18346851      -1.45148788      -1.41190437       0.00000000
Si       1.85551247       0.93112012       1.10652761       0.00000000
Si       3.45732447      -0.84592342       1.01952718       0.00000000
Si      -0.04339656       2.69260670      -2.61710249       0.00000000
Si       2.57914685      -2.73427653      -0.05213607       0.00000000
Si       2.56704338      -0.11598480      -2.75314642       0.00000000
Si       0.14551857      -2.59134806       2.78083368       0.00000000
Si      -2.77619070      -0.00948078      -2.60414870       0.00000000
