10
Lattice="16.290000149 0.0 0.0 0.0 16.290000149 0.0 0.0 0.0 29.1751946751" Properties=species:S:1:pos:R:3:initial_magmoms:R:1 pbc="T T T"
Si       0.85672369      -1.87799267      -1.11866449       0.00000000
Si       1.47981619       1.26094375       1.37844042       0.00000000
Si      -1.39722589       1.31673700      -1.42196981       0.00000000
Si      -1.33146316      -1.34359921       1.48965626       0.00000000
H        1.39272985      -1.62706150      -2.50556572       0.00000000
H        2.65636145       0.13872564      -2.04932402       0.00000000
Si      -0.00731421       2.55101337       2.72166639       0.00000000
H       -0.23762223      -0.76636306      -3.66720527       0.00000000
Si      -2.81005761       2.49492755       0.04793484       0.00000000
Si       2.54586638      -2.80536609       0.19737019       0.00000000
