10
Lattice="16.290000149 0.0 0.0 0.0 16.290000149 0.0 0.0 0.0 29.1751946751" Properties=species:S:1:pos:R:3:initial_magmoms:R:1 pbc="T T T"
Si      -1.42728094       1.35266460      -1.26804149       0.00000000
Si      -1.37596744      -1.34441371       1.34083360       0.00000000
Si       1.34858395       1.38043905       1.34494730       0.00000000
Si       1.35578413      -1.33338538      -1.39571214       0.00000000
Si      -0.10063962       2.70067025      -2.60219105       0.00000000
Si      -0.00878031      -2.69759144       2.68111287       0.00000000
Si       2.70070283      -2.67906971      -0.02865004       0.00000000
Si       2.70819623       0.02731833       2.69858881       0.00000000
Si      -0.06566499      -2.79368616      -2.62059184       0.00000000
Si      -2.72839583       0.02826315       2.69050728       0.00000000
