10
Lattice="16.290000149 0.0 0.0 0.0 16.290000149 0.0 0.0 0.0 29.1751946751" Properties=species:S:1:pos:R:3:initial_magmoms:R:1 pbc="T T T"
Si       1.91775656      -1.06032914       0.77996965       0.00000000
Si      -1.25555176      -1.31820473      -1.47005053       0.00000000
Si       1.16160733       1.44065340      -1.50351448       0.00000000
Si      -0.97389766       0.40255685       2.15213741       0.00000000
H       -1.88068052       1.97040421       0.65830909       0.00000000
Si       0.05046642       2.55255994       2.54378522       0.00000000
Si      -2.60141528      -2.60899176      -0.09849546       0.00000000
Si       3.66394683      -0.73799891      -0.71350856       0.00000000
Si       2.68232771       0.12349612      -2.70083530       0.00000000
Si       2.60299541       2.76959162      -0.29385256       0.00000000
