10
Lattice="16.290000149 0.0 0.0 0.0 16.290000149 0.0 0.0 0.0 29.1751946751" Properties=species:S:1:pos:R:3:initial_magmoms:R:1 pbc="T T T"
Si       1.35961228      -1.35312072       1.35364151       0.00000000
Si      -1.36285399       1.36307391       1.34512235       0.00000000
Si       1.34962651       1.38710166      -1.33549454       0.00000000
Si      -1.34858395      -1.38043905      -1.34494730       0.00000000
Si      -2.77586490      -0.02777445      -2.61298879       0.00000000
Si       0.00045612      -2.71722904       2.69607974       0.00000000
Si       2.79272505       0.05653770      -2.61838620       0.00000000
Si      -0.00291591       2.70589120       2.70941280       0.00000000
Si      -0.02814912       2.72889268      -2.69345397       0.00000000
Si      -2.72635958       0.01601307       2.69715922       0.00000000
