10
Lattice="16.290000149 0.0 0.0 0.0 16.290000149 0.0 0.0 0.0 29.1751946751" Properties=species:S:1:pos:R:3:initial_magmoms:R:1 pbc="T T T"
Si       1.35856158      -1.23346252       1.45866141       0.00000000
Si      -1.16029338       1.59388301       1.29152752       0.00000000
Si       1.32414081       1.42034140      -1.34628936       0.00000000
Si      -1.45709979      -1.39215970      -1.34626018       0.00000000
Si      -0.51382896       2.59865902      -2.27995394       0.00000000
Si       2.80273525      -2.41818536       0.09543206       0.00000000
Si      -1.43950659       3.41343921      -0.28244506       0.00000000
Si       0.01260032      -2.59475267      -2.68621852       0.00000000
Si      -2.63872753       0.28818639       2.66469307       0.00000000
Si       0.01918962      -2.70029558       2.69284421       0.00000000
