10
Lattice="16.290000149 0.0 0.0 0.0 16.290000149 0.0 0.0 0.0 29.1751946751" Properties=species:S:1:pos:R:3:initial_magmoms:R:1 pbc="T T T"
Si       1.33677207       1.35063649      -1.36989209       0.00000000
Si      -1.37913560       1.39591080       1.29747926       0.00000000
Si       1.34708364      -1.35249355       1.38663865       0.00000000
Si      -1.38003150      -1.35966115      -1.35673408       0.00000000
Si      -0.11944480      -2.73404847       2.60093943       0.00000000
Si      -2.69117481       0.05797611       2.66209064       0.00000000
Si       2.68564925      -2.68346801      -0.02173552       0.00000000
Si       2.68074596       2.69662382       0.01873047       0.00000000
Si      -0.06934979       2.68871665      -2.70305261       0.00000000
Si       2.68854887      -0.01062108      -2.73053564       0.00000000
