10
Lattice="16.290000149 0.0 0.0 0.0 16.290000149 0.0 0.0 0.0 29.1751946751" Properties=species:S:1:pos:R:3:initial_magmoms:R:1 pbc="T T T"
Si       1.18441333      -0.51173406       0.80042147       0.00000000
H       -0.80615953       0.74733634      -1.65280395       0.00000000
H        0.63355069       1.65721430      -1.10325999       0.00000000
H       -0.56410642       0.12396690       2.32844311       0.00000000
Si      -1.88626799       0.57707326       1.74102974       0.00000000
Si      -1.65053540      -0.18806805      -2.46121942       0.00000000
Si       2.51796161      -1.58102596      -0.82259461       0.00000000
Si      -1.61499061       2.60394023       0.53466462       0.00000000
Si       0.49388022      -2.37192176       2.22157437       0.00000000
Si      -2.85386142      -1.41749065       0.85349114       0.00000000
