10
Lattice="16.290000149 0.0 0.0 0.0 16.290000149 0.0 0.0 0.0 29.1751946751" Properties=species:S:1:pos:R:3:initial_magmoms:R:1 pbc="T T T"
Si       1.31203921       1.33793469      -1.36461138       0.00000000
Si      -1.27624006      -1.46302120      -1.29657483       0.00000000
Si      -1.30469869       1.40996728       1.33794525       0.00000000
Si       1.23095386      -1.48985083       1.36239407       0.00000000
H       -1.92168245      -2.28905453      -0.21863891       0.00000000
Si      -2.59397075      -0.02880072       2.62060351       0.00000000
Si       2.54439540       2.69829680       0.08014426       0.00000000
Si      -0.15767091       2.63076335      -2.63592049       0.00000000
Si       2.69117481      -0.05797611      -2.66209064       0.00000000
Si       2.57173002      -2.79202458      -0.06115121       0.00000000
