10
Lattice="16.290000149 0.0 0.0 0.0 16.290000149 0.0 0.0 0.0 29.1751946751" Properties=species:S:1:pos:R:3:initial_magmoms:R:1 pbc="T T T"
Si       1.35984034       1.35086455      -1.35323305       0.00000000
Si       1.37055916      -1.34250778       1.35679243       0.00000000
Si      -1.33858812       1.36309834       1.37245951       0.00000000
Si      -1.34860024      -1.37811772      -1.35127832       0.00000000
Si      -2.68843646      -0.04787631       2.67661989       0.00000000
Si       2.66952377      -2.70018155      -0.06112203       0.00000000
Si      -0.02873067       2.69995349      -2.68414709       0.00000000
Si      -2.69102657      -0.02031363      -2.72096618       0.00000000
Si       2.67819005      -0.01163106      -2.74372283       0.00000000
Si       2.72709263       0.03929148       2.70745807       0.00000000
