10
Lattice="16.290000149 0.0 0.0 0.0 16.290000149 0.0 0.0 0.0 29.1751946751" Properties=species:S:1:pos:R:3:initial_magmoms:R:1 pbc="T T T"
Si       0.15508080      -0.79382800      -1.27831115       0.00000000
H       -1.39512448       2.03962205      -0.46665724       0.00000000
Si       0.88216867      -0.17914113       2.53882544       0.00000000
H       -1.29932299      -2.67162518       0.43322247       0.00000000
Si      -2.05242599      -0.71118883      -2.08900229       0.00000000
Si       2.72860760       0.69289516       1.24820235       0.00000000
Si       1.01489959      -2.87376780      -0.48953059       0.00000000
Si      -0.81210538       1.47554821       2.64782397       0.00000000
Si       0.86151295      -2.46461186       1.86928390       0.00000000
Si       1.22523607       0.37581030      -2.98908622       0.00000000
