10
Lattice="16.290000149 0.0 0.0 0.0 16.290000149 0.0 0.0 0.0 29.1751946751" Properties=species:S:1:pos:R:3:initial_magmoms:R:1 pbc="T T T"
Si       1.41478651       1.32685309      -1.23874959       0.00000000
Si      -1.42617322      -1.38911347      -1.17969900       0.00000000
Si       1.29453373      -1.29370294       1.42719217       0.00000000
Si      -1.08261712       1.42022737       1.49797120       0.00000000
H        2.13890960      -0.35829855       2.23560764       0.00000000
Si      -0.53589213      -2.11905209       2.59297460       0.00000000
Si       1.04402611       2.38857014       2.18055405       0.00000000
Si      -2.13770414      -0.34200855       2.67997503       0.00000000
Si       2.64429056       2.46456299       0.38735906       0.00000000
Si       0.00824274      -2.71046054      -2.46235726       0.00000000
