10
Lattice="16.290000149 0.0 0.0 0.0 16.290000149 0.0 0.0 0.0 29.1751946751" Properties=species:S:1:pos:R:3:initial_magmoms:R:1 pbc="T T T"
Si       1.41965722      -1.37231848       1.25348306       0.00000000
Si       1.37626066       1.32028822      -1.36361942       0.00000000
Si      -1.33856560       1.33097446       1.40837417       0.00000000
Si      -1.35653347      -1.38179926      -1.35066564       0.00000000
Si       0.11758122      -2.60964173       2.75305890       0.00000000
Si      -2.68564925       2.68346801       0.02173552       0.00000000
Si       0.00289962       2.67284693      -2.70880012       0.00000000
Si      -2.80509404      -0.05058045       2.62267495       0.00000000
Si       2.78505246       2.64557747      -0.00723545       0.00000000
Si       0.07444530       2.72414414       2.70868342       0.00000000
