10
Lattice="16.290000149 0.0 0.0 0.0 16.290000149 0.0 0.0 0.0 29.1751946751" Properties=species:S:1:pos:R:3:initial_magmoms:R:1 pbc="T T T"
Si      -0.97795387       1.85971529      -0.89652456       0.00000000
Si      -1.76715551      -1.48328596       0.33250969       0.00000000
Si       0.38439513       0.63627112       2.22475447       0.00000000
Si       1.75713716      -0.96857083      -1.26378191       0.00000000
H       -0.38833731      -1.21922506      -2.57474011       0.00000000
Si       1.87954022      -1.22823343       2.56765053       0.00000000
Si       2.49623075      -2.29892627       0.52124403       0.00000000
Si      -2.46474218       0.84721033      -2.36788797       0.00000000
Si      -1.08069490      -3.53397707      -0.43301824       0.00000000
Si      -3.58593402      -0.59505742      -0.81664287       0.00000000
