10
Lattice="16.290000149 0.0 0.0 0.0 16.290000149 0.0 0.0 0.0 29.1751946751" Properties=species:S:1:pos:R:3:initial_magmoms:R:1 pbc="T T T"
Si      -0.11709252       2.30575667       0.23308063       0.00000000
Si       1.60026445       0.07599285      -1.79319499       0.00000000
Si       0.28605240      -0.89026480       2.24252216       0.00000000
Si      -2.12664323      -0.96834277      -0.68258285       0.00000000
H        1.09488349      -2.74686870       0.05505359       0.00000000
H        2.53459370      -1.83699074       0.60459756       0.00000000
Si      -1.86328280       1.98342644       1.72655885       0.00000000
Si      -1.90560422      -0.16174341       2.70739972       0.00000000
Si       3.18003609      -1.01095741      -0.47333836       0.00000000
Si      -1.04402611      -2.38857014      -2.18055405       0.00000000
