10
Lattice="16.290000149 0.0 0.0 0.0 16.290000149 0.0 0.0 0.0 29.1751946751" Properties=species:S:1:pos:R:3:initial_magmoms:R:1 pbc="T T T"
Si      -0.27428776       0.82038070       2.15441308       0.00000000
Si       1.65089378      -1.65451016       0.09423588       0.00000000
Si      -1.76981078      -1.00659169      -1.15443328       0.00000000
Si       0.92255158       1.73027495      -1.27851538       0.00000000
Si      -0.42903462      -2.30876543      -2.57797855       0.00000000
Si      -2.54340659       1.30417741       2.03602014       0.00000000
Si       2.45050472       0.46595916      -2.49197008       0.00000000
Si       3.48249252      -0.36171945      -0.53831152       0.00000000
Si       1.01452492       2.80593786       2.27079293       0.00000000
Si       2.10626444      -2.07671438       2.30778707       0.00000000
