10
Lattice="16.290000149 0.0 0.0 0.0 16.290000149 0.0 0.0 0.0 29.1751946751" Properties=species:S:1:pos:R:3:initial_magmoms:R:1 pbc="T T T"
Si      -1.33208218      -1.35484420      -1.38340021       0.00000000
Si       1.33234282      -1.36639381       1.37213858       0.00000000
Si      -1.37088496       1.33974989       1.36572004       0.00000000
Si       1.35153244       1.35142982      -1.37348064       0.00000000
Si      -2.69461037       2.70416772      -0.02762891       0.00000000
Si       0.00273672       2.72334105       2.67542370       0.00000000
Si       2.70322616       0.00537407       2.70238158       0.00000000
Si       2.70240188      -2.70614858      -0.00790648       0.00000000
Si      -2.69123834      -2.71895252      -0.04096197       0.00000000
Si      -2.69169446      -0.00172348      -2.73704171       0.00000000
