10
Lattice="16.290000149 0.0 0.0 0.0 16.290000149 0.0 0.0 0.0 29.1751946751" Properties=species:S:1:pos:R:3:initial_magmoms:R:1 pbc="T T T"
Si      -1.36731745       1.35826021      -1.32700455       0.00000000
Si       1.34876314       1.36182772       1.34803987       0.00000000
Si      -1.37598373      -1.33029028       1.35559625       0.00000000
Si       1.37528326      -1.36407574      -1.33275207       0.00000000
Si       2.66828573      -0.07912053       2.62451299       0.00000000
Si       0.00061902       2.70326036      -2.66947196       0.00000000
Si      -2.70821252      -0.00434943      -2.69135336       0.00000000
Si       0.01066995      -2.72003906      -2.67959575       0.00000000
Si      -2.68566716       2.72075582       0.06348522       0.00000000
Si      -0.06559983      -2.75745720       2.65304633       0.00000000
