10
Lattice="16.290000149 0.0 0.0 0.0 16.290000149 0.0 0.0 0.0 29.1751946751" Properties=species:S:1:pos:R:3:initial_magmoms:R:1 pbc="T T T"
H       -0.64992214       0.42225309      -0.05330308       0.00000000
Si       1.97613992       0.62159383       1.06991274       0.00000000
H       -1.80429671      -1.22645782       1.04762289       0.00000000
Si       0.74596798      -0.55061830      -2.51735250       0.00000000
Si       0.18199188       2.13737834       1.73472790       0.00000000
Si      -2.52732836      -1.29481066      -0.27389673       0.00000000
Si      -0.91079020      -2.07868547      -1.78578449       0.00000000
Si       2.60672582       0.29409966      -1.26684530       0.00000000
Si       1.21984408      -1.26115552       2.33655382       0.00000000
Si      -0.74101582       1.24853077      -2.63492853       0.00000000
