10
Lattice="16.290000149 0.0 0.0 0.0 16.290000149 0.0 0.0 0.0 29.1751946751" Properties=species:S:1:pos:R:3:initial_magmoms:R:1 pbc="T T T"
Si       1.34773863       1.35415513      -1.35734676       0.00000000
Si      -1.34407162       1.36497169       1.35104492       0.00000000
Si       1.34242633      -1.35780409       1.36968786       0.00000000
Si      -1.37145511      -1.34741107      -1.35553789       0.00000000
Si      -2.68192046      -0.08228079       2.60735797       0.00000000
Si       2.66959056      -2.70694190      -0.02579087       0.00000000
Si       2.66229590       2.72026712       0.03681910       0.00000000
Si      -0.02063943       2.71122617      -2.69823870       0.00000000
Si       2.69102657       0.02031363       2.72096618       0.00000000
Si      -0.02845863      -2.67880907      -2.74261418       0.00000000
