10
Lattice="16.290000149 0.0 0.0 0.0 16.290000149 0.0 0.0 0.0 29.1751946751" Properties=species:S:1:pos:R:3:initial_magmoms:R:1 pbc="T T T"
Si       1.32063031      -1.48877032      -1.20988949       0.00000000
Si       1.36171369       1.29251100       1.40118249       0.00000000
Si      -1.35115777      -1.39243126       1.31505731       0.00000000
Si      -1.39157326       1.31601910      -1.36509861       0.00000000
Si       2.68835501       2.64051666       0.06703293       0.00000000
Si      -2.70567128       2.64410046       0.03452301       0.00000000
Si      -2.67734297      -0.04368440       2.69933277       0.00000000
Si       0.02629206       2.70212544       2.69434382       0.00000000
Si       0.02987586      -2.74889957       2.65863338       0.00000000
Si      -2.69101028      -2.71741100      -0.08607849       0.00000000
