10
Lattice="16.290000149 0.0 0.0 0.0 16.290000149 0.0 0.0 0.0 29.1751946751" Properties=species:S:1:pos:R:3:initial_magmoms:R:1 pbc="T T T"
H        1.23730696      -1.95330134       0.20221327       0.00000000
H       -1.97613992      -0.62159383      -1.06991274       0.00000000
Si       1.87781348       0.70385833       1.27215519       0.00000000
Si      -0.75629584      -1.88274935       1.26664108       0.00000000
Si      -1.79414804       1.51578451       0.66481516       0.00000000
Si       0.63058591      -0.32749416      -2.33675804       0.00000000
H       -2.62606205      -0.19934073      -1.12321582       0.00000000
H        2.32205807       1.99093124       0.61054930       0.00000000
H        2.84583045       0.45756981      -1.21468006       0.00000000
H       -0.42740073       2.16839450      -2.22988930       0.00000000
