10
Lattice="16.290000149 0.0 0.0 0.0 16.290000149 0.0 0.0 0.0 29.1751946751" Properties=species:S:1:pos:R:3:initial_magmoms:R:1 pbc="T T T"
Si      -1.32926564       1.35917245      -1.36542829       0.00000000
Si       1.31106808       1.42952896       1.32292003       0.00000000
Si      -1.34213474      -1.36858807       1.36297757       0.00000000
Si       1.37795482      -1.34587981      -1.35749263       0.00000000
Si       2.66590739       0.07130133       2.62670113       0.00000000
Si      -2.64974771       2.69535971       0.04180805       0.00000000
Si       2.68280012       2.68366349      -0.10896935       0.00000000
Si      -2.67146228      -0.00169416      -2.72000340       0.00000000
Si      -2.61445934      -0.00759114       2.78547254       0.00000000
Si       0.02246391      -2.71378370      -2.69535036       0.00000000
