10
Lattice="16.290000149 0.0 0.0 0.0 16.290000149 0.0 0.0 0.0 29.1751946751" Properties=species:S:1:pos:R:3:initial_magmoms:R:1 pbc="T T T"
Si       1.57977163      -1.08695026       1.31985663       0.00000000
Si      -1.22950405      -1.13770990      -1.62610865       0.00000000
Si      -1.60026445      -0.07599285       1.79319499       0.00000000
Si       1.29819898       1.58959450      -1.27685239       0.00000000
H        0.93432925      -1.91298359       2.39779255       0.00000000
H       -0.50538096      -2.82286155       1.84824858       0.00000000
Si      -1.71735698       2.22976382       2.02627562       0.00000000
Si      -2.64429056      -2.46456299      -0.38735906       0.00000000
Si       2.81730666      -2.45254097      -0.09823288       0.00000000
Si       0.13279608      -2.50725908      -2.88846097       0.00000000
