10
Lattice="16.290000149 0.0 0.0 0.0 16.290000149 0.0 0.0 0.0 29.1751946751" Properties=species:S:1:pos:R:3:initial_magmoms:R:1 pbc="T T T"
Si       1.30772863      -1.26513028       1.47390749       0.00000000
Si      -0.84359395      -1.90972559      -1.09546729       0.00000000
Si      -1.43961247       1.37204155       1.27770431       0.00000000
Si       1.22789134       1.43653366      -1.42116750       0.00000000
Si       2.56956833      -2.66058056       0.10654489       0.00000000
Si      -0.06814107       2.77882968       2.59456465       0.00000000
Si       2.61912251       2.76377772      -0.06584841       0.00000000
Si      -0.10267587      -2.66424581       2.73238827       0.00000000
Si       2.76472254       0.17604603      -2.62963323       0.00000000
Si      -1.40501251      -1.44547687      -3.25946734       0.00000000
