10
Lattice="16.290000149 0.0 0.0 0.0 16.290000149 0.0 0.0 0.0 29.1751946751" Properties=species:S:1:pos:R:3:initial_magmoms:R:1 pbc="T T T"
Si       0.64544239       0.82603333      -1.07793592       0.00000000
H       -1.43971021      -0.90987796      -0.54954397       0.00000000
H       -0.63355069      -1.65721430       1.10325999       0.00000000
Si       0.55086265      -2.16894836       1.90368145       0.00000000
Si      -2.24854130       0.94672594       1.63792460       0.00000000
Si       1.92168245       2.28905453       0.21863891       0.00000000
Si       1.88297741      -0.53955738      -2.49602543       0.00000000
Si      -2.53459370       1.83699074      -0.60459756       0.00000000
Si      -0.93432925       1.91298359      -2.39779255       0.00000000
Si      -2.28408608      -1.84528235      -1.35795944       0.00000000
