10
Lattice="16.290000149 0.0 0.0 0.0 16.290000149 0.0 0.0 0.0 29.1751946751" Properties=species:S:1:pos:R:3:initial_magmoms:R:1 pbc="T T T"
Si      -1.34984835      -1.41097465       1.30416038       0.00000000
Si       1.33858812      -1.36309834      -1.37245951       0.00000000
Si      -1.43877546       1.34956135      -1.28688866       0.00000000
Si       1.38003150       1.35966115       1.35673408       0.00000000
Si      -2.58738337      -0.04538394       2.72224989       0.00000000
Si      -0.06020162       2.67660992      -2.67656153       0.00000000
Si       0.00089590       2.75557195       2.65421334       0.00000000
Si       2.70914728      -2.70560612      -0.01566708       0.00000000
Si       2.69842846      -0.01223379      -2.72569256       0.00000000
Si      -0.02784968      -2.78458005       2.63947986       0.00000000
