10
Lattice="16.290000149 0.0 0.0 0.0 16.290000149 0.0 0.0 0.0 29.1751946751" Properties=species:S:1:pos:R:3:initial_magmoms:R:1 pbc="T T T"
Si       1.81877852      -0.88822855       1.14915257       0.00000000
Si      -0.88282027       1.78051331       1.27854456       0.00000000
Si       1.12119184       1.44226774      -1.55124510       0.00000000
Si      -1.02436408      -2.15000309      -0.39164781       0.00000000
H       -1.93114694      -0.58215574      -1.88547613       0.00000000
Si       2.60798015       2.45477270      -0.07988168       0.00000000
Si      -0.05046642      -2.55255994      -2.54378522       0.00000000
Si      -1.95297554       0.61087501       2.98931962       0.00000000
Si       0.99144199       3.23864751       1.43200608       0.00000000
H        3.19759671      -0.62416765      -1.75809723       0.00000000
