10
Lattice="16.290000149 0.0 0.0 0.0 16.290000149 0.0 0.0 0.0 29.1751946751" Properties=species:S:1:pos:R:3:initial_magmoms:R:1 pbc="T T T"
Si      -1.37902996      -1.36171369      -1.30707790       0.00000000
Si      -1.38460114       1.31424463       1.35895139       0.00000000
Si       1.32952465      -1.36751293       1.37566878       0.00000000
Si       1.32372541       1.38683287      -1.38369196       0.00000000
Si      -2.69601131       0.02655270      -2.65433004       0.00000000
Si      -0.01413972       2.67527414       2.68694790       0.00000000
Si      -0.05110173      -2.72222192      -2.67081402       0.00000000
Si       2.68768712      -0.00319284       2.70874177       0.00000000
Si       2.74743885       0.02435355      -2.65325055       0.00000000
Si       2.69503391      -2.71474481       0.02538242       0.00000000
