10
Lattice="16.290000149 0.0 0.0 0.0 16.290000149 0.0 0.0 0.0 29.1751946751" Properties=species:S:1:pos:R:3:initial_magmoms:R:1 pbc="T T T"
Si       1.36096435      -1.35446301      -1.34153380       0.00000000
Si       1.37301895       1.34723188       1.34351771       0.00000000
Si      -1.34447887      -1.35575644       1.36560334       0.00000000
Si      -1.32851467       1.37011933      -1.37359734       0.00000000
Si       0.00154755       2.70347213       2.67641566       0.00000000
Si       2.70744689       0.01979235      -2.68254245       0.00000000
Si       0.04504185      -2.70397712       2.69931819       0.00000000
Si       0.00381186      -2.72601749      -2.67755349       0.00000000
Si      -2.68892516       2.72438849      -0.01855542       0.00000000
Si      -2.70168023      -2.71818200       0.01540450       0.00000000
