10
Lattice="16.290000149 0.0 0.0 0.0 16.290000149 0.0 0.0 0.0 29.1751946751" Properties=species:S:1:pos:R:3:initial_magmoms:R:1 pbc="T T T"
Si       1.32830290       1.33127306       1.33861920       0.00000000
Si      -1.41486796       1.34438814      -1.25845743       0.00000000
Si       1.23662278      -1.20335648      -1.59138142       0.00000000
Si      -1.45722196      -1.43908908       1.21634596       0.00000000
Si      -2.44330454      -0.52124531      -2.20697511       0.00000000
Si      -0.69919939      -2.06135079      -2.65665384       0.00000000
Si       2.62747695       2.62189393      -0.13354362       0.00000000
Si       2.64456684      -0.10407469       2.61552995       0.00000000
Si      -0.11479563       2.66183701       2.62151086       0.00000000
Si       2.53498466      -2.73495859      -0.27405719       0.00000000
