10
Lattice="16.290000149 0.0 0.0 0.0 16.290000149 0.0 0.0 0.0 29.1751946751" Properties=species:S:1:pos:R:3:initial_magmoms:R:1 pbc="T T T"
H        1.19941642       0.36870786       0.88467943       0.00000000
Si       0.83712682       1.48893859      -1.63456946       0.00000000
Si      -0.77420832      -2.11393703       1.17059634       0.00000000
Si       0.54211491      -2.38210301      -0.73766562       0.00000000
Si      -2.20304333       1.42402294       1.04383011       0.00000000
H        2.59454090      -1.67091419       1.35133667       0.00000000
Si      -3.41534514      -0.16322580      -0.38021114       0.00000000
H       -1.89379397      -1.57024198      -2.46568323       0.00000000
Si      -0.26945289      -1.20128977       3.26534614       0.00000000
Si       1.25845138       3.30201561      -0.14841422       0.00000000
