10
Lattice="16.290000149 0.0 0.0 0.0 16.290000149 0.0 0.0 0.0 29.1751946751" Properties=species:S:1:pos:R:3:initial_magmoms:R:1 pbc="T T T"
H       -1.43984053       0.28935927       0.44194585       0.00000000
Si       0.45628290      -2.14226534       0.86548215       0.00000000
Si      -0.36847980       0.23594436      -2.35566357       0.00000000
Si       1.21230181       1.58724874       1.42404125       0.00000000
H        0.16868295       2.70023042      -0.97494748       0.00000000
H        1.52155117      -1.40701618      -2.08547209       0.00000000
H        0.38159325      -3.21028662      -0.20303018       0.00000000
Si      -0.79933402       2.94651894       1.51188776       0.00000000
Si       3.41534514       0.16322580       0.38021114       0.00000000
Si      -2.04656159       1.91516645      -2.09702547       0.00000000
