10
Lattice="16.290000149 0.0 0.0 0.0 16.290000149 0.0 0.0 0.0 29.1751946751" Properties=species:S:1:pos:R:3:initial_magmoms:R:1 pbc="T T T"
Si       1.36837806      -1.35707104       1.34089195       0.00000000
Si       1.39782797       1.33465600      -1.33555289       0.00000000
Si      -1.35154873       1.36034533       1.35956407       0.00000000
Si      -1.35904213      -1.34604271      -1.36767478       0.00000000
Si       0.08156403       2.77000375      -2.61246363       0.00000000
Si       2.69915040      -2.70601337      -0.05000628       0.00000000
Si       0.02063943      -2.71122617       2.69823870       0.00000000
Si      -2.71070489      -0.00376299       2.70200230       0.00000000
Si       2.68293533       0.00904095       2.73505780       0.00000000
Si      -2.71116101       2.71346605       0.00592256       0.00000000
