10
Lattice="16.290000149 0.0 0.0 0.0 16.290000149 0.0 0.0 0.0 29.1751946751" Properties=species:S:1:pos:R:3:initial_magmoms:R:1 pbc="T T T"
Si       1.35584929      -1.39411613      -1.29003958       0.00000000
Si       1.39535254       1.34257294       1.32764641       0.00000000
Si      -1.32411474      -1.38474938       1.36134376       0.00000000
Si      -1.29381208       1.35228178      -1.43285216       0.00000000
Si      -2.64478464       2.67895568      -0.02625768       0.00000000
Si       2.69935076      -0.06577902      -2.64111951       0.00000000
Si       0.03494205       2.69684210       2.68268833       0.00000000
Si      -2.70417260      -0.03644073       2.70208983       0.00000000
Si      -2.63841053      -2.76840408      -0.00294669       0.00000000
Si      -2.65550041      -0.04243545      -2.75202026       0.00000000
