10
Lattice="16.290000149 0.0 0.0 0.0 16.290000149 0.0 0.0 0.0 29.1751946751" Properties=species:S:1:pos:R:3:initial_magmoms:R:1 pbc="T T T"
Si      -1.35622396      -0.57638908      -0.27150436       0.00000000
H        0.91917955      -1.74912248      -0.46502343       0.00000000
H        1.63035208      -0.86069845       1.16163955       0.00000000
Si       1.09434592      -1.11162961       2.54854078       0.00000000
Si      -2.70866864       0.77698414       1.05847606       0.00000000
Si      -1.81159463      -0.15418485      -2.48505556       0.00000000
Si       2.06687522      -1.82949734      -1.44971542       0.00000000
Si      -1.15960366       2.08310006       2.24523546       0.00000000
Si       0.02000412       1.13860585      -3.11760295       0.00000000
Si      -1.80424784      -2.78453118       0.33889906       0.00000000
