10
Lattice="16.290000149 0.0 0.0 0.0 16.290000149 0.0 0.0 0.0 29.1751946751" Properties=species:S:1:pos:R:3:initial_magmoms:R:1 pbc="T T T"
Si       1.31952259      -1.44094825       1.27647312       0.00000000
Si      -1.34876314      -1.36182772      -1.34803987       0.00000000
Si       1.38872251       1.35985663      -1.31375902       0.00000000
Si      -1.29091735       1.36764325       1.41251705       0.00000000
Si       2.74569582      -0.05183478       2.45617211       0.00000000
Si       0.01974348       2.70316262      -2.66667114       0.00000000
Si      -2.66427839       2.72020196       0.06733635       0.00000000
Si      -2.71608059      -0.00356751      -2.67504442       0.00000000
Si      -0.06405228      -2.77645134       2.61771517       0.00000000
Si       0.02652012      -2.72590346      -2.68079194       0.00000000
