10
Lattice="16.290000149 0.0 0.0 0.0 16.290000149 0.0 0.0 0.0 29.1751946751" Properties=species:S:1:pos:R:3:initial_magmoms:R:1 pbc="T T T"
Si       1.25618707      -0.22825548      -1.94709414       0.00000000
Si      -0.33671430       2.13022703       0.91659709       0.00000000
Si      -2.06218370      -0.67214170      -0.92634161       0.00000000
Si       1.21160134      -1.33397182       1.53502369       0.00000000
H        2.57834864      -0.68136184      -1.35968077       0.00000000
H       -2.49870683       0.29665719       1.68501337       0.00000000
H        0.37968732      -3.04909707      -0.25300729       0.00000000
H       -1.23507523       2.06244434       2.14125506       0.00000000
H       -3.20987937      -0.59176684       0.05835039       0.00000000
Si       0.28859364      -2.22281939      -2.83463274       0.00000000
