10
Lattice="16.290000149 0.0 0.0 0.0 16.290000149 0.0 0.0 0.0 29.1751946751" Properties=species:S:1:pos:R:3:initial_magmoms:R:1 pbc="T T T"
Si       1.31776327       1.35452980      -1.38526742       0.00000000
Si      -1.38655594       1.47844783       1.21310459       0.00000000
Si       1.59609421      -1.30559464       1.20992450       0.00000000
Si      -1.50262219      -1.34140006      -1.30133038       0.00000000
Si      -1.68156785      -2.39259377       2.11000843       0.00000000
Si      -2.22368276      -0.01049076       2.84767405       0.00000000
Si       2.37737891      -0.11034846      -2.86237835       0.00000000
Si       3.47035647       0.15253956       1.36338602       0.00000000
Si       3.13041675       2.10906632       0.00326762       0.00000000
Si      -0.12983130       2.70855461      -2.66652527       0.00000000
