10
Lattice="16.290000149 0.0 0.0 0.0 16.290000149 0.0 0.0 0.0 29.1751946751" Properties=species:S:1:pos:R:3:initial_magmoms:R:1 pbc="T T T"
Si      -1.33781626      -1.28801773      -1.43209361       0.00000000
Si       1.35163018       1.38385180      -1.35612140       0.00000000
Si      -1.12550869       1.11444778       1.75494631       0.00000000
Si       1.34328970      -1.41584536       1.36936694       0.00000000
Si       0.73524916       1.95916574       3.00545350       0.00000000
Si       2.41333094       0.27994365       2.74681540       0.00000000
Si      -2.78226687      -0.41361939       2.48651432       0.00000000
Si       0.05419683      -2.64145610      -2.74588180       0.00000000
Si       2.73764855       0.03412755      -2.71130919       0.00000000
Si      -0.04717584      -3.24190551       2.11925697       0.00000000
