10
Lattice="16.290000149 0.0 0.0 0.0 16.290000149 0.0 0.0 0.0 29.1751946751" Properties=species:S:1:pos:R:3:initial_magmoms:R:1 pbc="T T T"
Si      -1.24409989       1.35477415       1.48335296       0.00000000
Si       1.35847198      -1.38390132       1.39495358       0.00000000
Si      -1.44427141      -1.43998714      -1.27877796       0.00000000
Si       1.52151859       1.36664956      -1.28598423       0.00000000
H       -0.63931735       1.15963624      -2.72204566       0.00000000
Si      -0.03143970      -2.61817769      -2.74868262       0.00000000
Si      -2.58094038      -0.05086064       2.83837883       0.00000000
Si      -2.87836809       2.53454483       0.26657375       0.00000000
Si       0.14338458       2.63407673       2.85956294       0.00000000
Si       2.84560239      -2.67397094       0.05172762       0.00000000
