10
Lattice="16.290000149 0.0 0.0 0.0 16.290000149 0.0 0.0 0.0 29.1751946751" Properties=species:S:1:pos:R:3:initial_magmoms:R:1 pbc="T T T"
Si      -1.28006821      -0.03499092      -0.82244874       0.00000000
Si       2.31422258      -0.20214261      -0.92275306       0.00000000
Si       2.16083594       0.20701332       1.43606143       0.00000000
Si       1.45440379       1.87779719      -1.71153362       0.00000000
H        1.29932299       2.67162518      -0.43322247       0.00000000
Si       0.63931735      -1.15963624       2.72204566       0.00000000
Si      -2.64292383      -1.42130577       0.50960313       0.00000000
Si      -0.80495407      -2.59962338       1.44326771       0.00000000
Si      -0.68048218      -1.55465083      -2.58037092       0.00000000
Si      -2.06942623       2.22860234      -0.61396280       0.00000000
