10
Lattice="16.28999089631971 0.0 0.0 0.0 16.28999089631971 0.0 0.0 0.0 34.32429715621058" Properties=species:S:1:pos:R:3:initial_magmoms:R:1 pbc="T T T"
Si      -1.38113855       1.25335586       1.49583654       0.00000000
Si      -1.86851906      -0.97564068      -1.14622176       0.00000000
Si       1.63100367       1.14178565      -1.36738607       0.00000000
Si       1.29611385      -1.47123528       1.47000063       0.00000000
Si       3.35238426      -0.99859818      -1.26334906       0.00000000
Si      -3.54979367       0.69203504      -0.98944922       0.00000000
Si      -2.73757427       2.57098880       0.14986340       0.00000000
Si       2.77161318       2.64991385       0.11804132       0.00000000
Si      -0.04852465       2.60619149       2.85898215       0.00000000
Si      -2.76376859      -2.75487099       0.15529694       0.00000000
