10
Lattice="16.28999089631971 0.0 0.0 0.0 16.28999089631971 0.0 0.0 0.0 34.32429715621058" Properties=species:S:1:pos:R:3:initial_magmoms:R:1 pbc="T T T"
Si      -1.21010495      -1.01717808      -1.77738175       0.00000000
Si       2.37901278      -0.22198173       0.06047945       0.00000000
Si      -0.74625130      -1.66304400       1.58588639       0.00000000
Si      -0.23837646       2.60720750       0.00185351       0.00000000
Si      -0.60515998       1.36924243       2.36192486       0.00000000
Si       0.55665862      -0.57640326       3.17414115       0.00000000
Si       2.73504702      -0.76078977       2.32856162       0.00000000
Si      -1.64066594       2.61699779      -2.07459600       0.00000000
Si       3.25968276       1.81564382      -0.73635956       0.00000000
Si      -0.30054561      -3.74076834       0.66297417       0.00000000
