10
Lattice="16.28999089631971 0.0 0.0 0.0 16.28999089631971 0.0 0.0 0.0 34.32429715621058" Properties=species:S:1:pos:R:3:initial_magmoms:R:1 pbc="T T T"
Si      -0.54306462      -1.02988638       2.00831575       0.00000000
Si      -1.30290992      -1.08664074      -1.58825477       0.00000000
Si       2.17838839      -0.18438651      -0.84557953       0.00000000
Si      -1.16181860       1.94564569      -0.81221630       0.00000000
Si      -0.55665862       0.57640326      -3.17414115       0.00000000
Si       1.82235415       0.35442153      -3.11366171       0.00000000
Si       0.88600495       0.00156384       3.55359647       0.00000000
Si       2.64649783      -2.48122764      -0.79282306       0.00000000
Si      -2.76548718      -0.66031515       2.55434697       0.00000000
Si      -3.55884276      -0.71219880      -1.20423431       0.00000000
