10
Lattice="16.28999089631971 0.0 0.0 0.0 16.28999089631971 0.0 0.0 0.0 34.32429715621058" Properties=species:S:1:pos:R:3:initial_magmoms:R:1 pbc="T T T"
Si      -2.22242256       0.36957123       0.54603122       0.00000000
Si       0.54306462       1.02988638      -2.00831575       0.00000000
Si       1.42906957       1.03145022       1.54528072       0.00000000
Si       0.32260716      -2.36333691      -0.22386319       0.00000000
Si       2.62029211      -2.38083237      -0.74974604       0.00000000
Si      -0.75984531      -0.05675436      -3.59657051       0.00000000
Si       0.39896979      -3.08426715       2.04487115       0.00000000
Si      -2.63236041      -0.92735712       2.48312402       0.00000000
Si      -3.57152778      -0.58142268      -1.11378974       0.00000000
Si      -2.57736537       2.71857035       0.74051280       0.00000000
