10
Lattice="16.28999089631971 0.0 0.0 0.0 16.28999089631971 0.0 0.0 0.0 34.32429715621058" Properties=species:S:1:pos:R:3:initial_magmoms:R:1 pbc="T T T"
Si       0.69253677      -2.22213519       0.00957648       0.00000000
Si       0.47267064       0.83815308      -2.17320976       0.00000000
Si      -2.33379404      -0.09026289       0.44879044       0.00000000
Si       1.13037939       1.61217962       1.36899103       0.00000000
Si      -0.12108357       3.40886888       0.49173016       0.00000000
Si       0.21841632       3.16831445      -1.87709389       0.00000000
Si      -0.55742914      -3.27756429      -1.67361934       0.00000000
Si       3.37066164       1.51710466       0.56374257       0.00000000
Si      -2.46285971      -0.96312996       2.67376127       0.00000000
Si       2.88546399      -2.31567237      -0.74463172       0.00000000
