10
Lattice="16.28999089631971 0.0 0.0 0.0 16.28999089631971 0.0 0.0 0.0 34.32429715621058" Properties=species:S:1:pos:R:3:initial_magmoms:R:1 pbc="T T T"
Si       2.21979920       0.84468537       0.37217856       0.00000000
Si      -1.46731916       1.82708640       0.80775414       0.00000000
Si      -1.40228948       0.00979029      -2.07644952       0.00000000
Si       0.23837646      -2.60720750      -0.00185351       0.00000000
Si      -0.36678352      -1.23796507       2.36007134       0.00000000
Si      -3.17912123       0.17156628       0.88755817       0.00000000
Si       1.76499869       2.91481857      -0.70292767       0.00000000
Si       0.38627988       0.63814446       3.56389377       0.00000000
Si       3.49805921      -0.79156368      -0.73821307       0.00000000
Si      -3.50224967      -0.69761925      -1.25362701       0.00000000
