10
Lattice="16.28999089631971 0.0 0.0 0.0 16.28999089631971 0.0 0.0 0.0 34.32429715621058" Properties=species:S:1:pos:R:3:initial_magmoms:R:1 pbc="T T T"
Si       0.27240138      -2.30964018      -0.27655102       0.00000000
Si      -1.65169197       1.17822312      -1.22544674       0.00000000
Si       1.90773819       1.28065464      -0.72832767       0.00000000
Si      -0.69291144       0.07188777       2.33957973       0.00000000
Si      -0.74565846       3.27674979      -0.43351612       0.00000000
Si       1.46497599       3.19927455       0.52066555       0.00000000
Si      -0.36408150      -3.16303649       1.85258633       0.00000000
Si       0.72047412      -1.63489861       3.23846492       0.00000000
Si       2.50603731      -2.79783098      -0.98500491       0.00000000
Si      -1.28687742      -3.26712959      -1.68058718       0.00000000
