10
Lattice="16.28999089631971 0.0 0.0 0.0 16.28999089631971 0.0 0.0 0.0 34.32429715621058" Properties=species:S:1:pos:R:3:initial_magmoms:R:1 pbc="T T T"
Si       2.27326950       0.58830032      -0.17532861       0.00000000
Si      -1.19716839       1.86994213      -0.89095628       0.00000000
Si      -0.20463498      -0.57682305       2.38457890       0.00000000
Si      -0.10088397      -1.63534725      -1.84496633       0.00000000
Si       2.18595510       1.23130897      -2.51624698       0.00000000
Si       3.11381721      -1.72345986       0.04959864       0.00000000
Si       2.13493482      -2.39936454      -1.97986089       0.00000000
Si       2.50100370       2.60221021       1.13740487       0.00000000
Si       0.02728575       2.44160710      -2.89268176       0.00000000
Si      -1.52207244      -3.34359810      -1.15539081       0.00000000
