10
Lattice="16.28999089631971 0.0 0.0 0.0 16.28999089631971 0.0 0.0 0.0 34.32429715621058" Properties=species:S:1:pos:R:3:initial_magmoms:R:1 pbc="T T T"
Si       1.34314308      -1.42127204       1.32388888       0.00000000
Si       0.44916417       2.15518981       0.88083061       0.00000000
Si      -2.31179535      -0.38225625       0.43839017       0.00000000
Si       0.87793326      -0.35087683      -2.19418192       0.00000000
Si       1.08260082       1.81880131      -2.96167364       0.00000000
Si       3.15617121      -0.99008014      -1.81404012       0.00000000
Si      -0.49519971       2.25555250       2.98552904       0.00000000
Si       0.75127851      -3.69341608       0.45503746       0.00000000
Si       3.56446377      -1.30282533       0.50470475       0.00000000
Si      -1.13213871       3.78735007       0.02773405       0.00000000
