10
Lattice="16.28999089631971 0.0 0.0 0.0 16.28999089631971 0.0 0.0 0.0 34.32429715621058" Properties=species:S:1:pos:R:3:initial_magmoms:R:1 pbc="T T T"
Si      -0.54374391       1.64644659      -1.53312991       0.00000000
Si      -1.37731950      -1.91781502       0.08690917       0.00000000
Si      -0.31123674       1.19055465       2.02262216       0.00000000
Si       1.39533624      -2.01433085      -0.57987500       0.00000000
Si      -1.25957538      -0.70783308       3.09955239       0.00000000
Si      -2.76208353      -1.75869121      -1.86319254       0.00000000
Si      -2.92319163       2.08614627      -1.42624399       0.00000000
Si      -3.08309427      -1.55601265       1.73993392       0.00000000
Si       0.40061997       1.54608390      -3.63782834       0.00000000
Si       1.29459888      -2.03037794      -3.19477007       0.00000000
