10
Lattice="16.28999089631971 0.0 0.0 0.0 16.28999089631971 0.0 0.0 0.0 34.32429715621058" Properties=species:S:1:pos:R:3:initial_magmoms:R:1 pbc="T T T"
Si       0.70538958      -2.26950718      -0.01791729       0.00000000
Si       0.40174398       0.76732905      -2.21707624       0.00000000
Si      -2.24028225       0.09507496       0.80524846       0.00000000
Si       1.38476403      -0.15912382       1.95010171       0.00000000
Si      -0.32101074       0.20267855       3.60312646       0.00000000
Si      -3.37066164      -1.51710466      -0.56374257       0.00000000
Si      -0.68281164      -0.76080883      -3.60295484       0.00000000
Si       2.76208353       1.75869121       1.86319254       0.00000000
Si      -0.16110810       3.84483748       0.43694855       0.00000000
Si       2.71353933       1.14958530      -2.65546641       0.00000000
