10
Lattice="16.28999089631971 0.0 0.0 0.0 16.28999089631971 0.0 0.0 0.0 34.32429715621058" Properties=species:S:1:pos:R:3:initial_magmoms:R:1 pbc="T T T"
Si       1.35604476      -1.36028016       1.35357941       0.00000000
Si       1.35606105       1.35762489      -1.35920860       0.00000000
Si      -1.35863487      -1.35767376      -1.35903698       0.00000000
Si      -1.36125756       1.36037790       1.36023833       0.00000000
Si      -0.00949707      -2.71202273       2.71217018       0.00000000
Si       2.72373687       0.00229689       2.70334883       0.00000000
Si       2.71244790      -2.71508525      -0.00161324       0.00000000
Si       2.71308321       2.71456560      -0.00205946       0.00000000
Si       2.71322982       0.00035838      -2.71580856       0.00000000
Si      -0.00180819      -2.71414858      -2.71573991       0.00000000
