10
Lattice="16.28999089631971 0.0 0.0 0.0 16.28999089631971 0.0 0.0 0.0 34.32429715621058" Properties=species:S:1:pos:R:3:initial_magmoms:R:1 pbc="T T T"
Si      -0.29413224      -2.05252371      -1.14162676       0.00000000
Si       2.32205805       0.38242404      -0.28537237       0.00000000
Si       0.10010205      -0.42080328       2.39058566       0.00000000
Si      -0.99183294       2.08257876      -0.77871576       0.00000000
Si       2.29620582       2.61198747       0.54613420       0.00000000
Si       0.93032190      -1.48085874      -3.14335224       0.00000000
Si       0.90231939       3.36149037      -1.26783727       0.00000000
Si       3.40403985      -1.32025563       0.88673439       0.00000000
Si      -2.56987782      -2.39215392      -1.62659503       0.00000000
Si       2.30723415      -1.13529897       2.95731445       0.00000000
