10
Lattice="16.28999089631971 0.0 0.0 0.0 16.28999089631971 0.0 0.0 0.0 34.32429715621058" Properties=species:S:1:pos:R:3:initial_magmoms:R:1 pbc="T T T"
Si      -1.34094393      -1.36230012       1.38024254       0.00000000
Si       1.40366043      -1.26340353      -1.43255967       0.00000000
Si       1.37613033       1.35395964       1.37965903       0.00000000
Si      -1.40662521       1.36958175      -1.46635196       0.00000000
Si      -2.69146638       2.70609480       0.02425699       0.00000000
Si      -2.69042382      -2.71912680       0.01077440       0.00000000
Si       2.72476314      -2.69195508       0.01961635       0.00000000
Si       2.73025287       2.69781948       0.00123224       0.00000000
Si      -2.69803125      -0.00474039       2.74003466       0.00000000
Si       0.01759320       2.70904329       2.74034358       0.00000000
