10
Lattice="16.28999089631971 0.0 0.0 0.0 16.28999089631971 0.0 0.0 0.0 34.32429715621058" Properties=species:S:1:pos:R:3:initial_magmoms:R:1 pbc="T T T"
Si      -1.35733167      -1.35700587       1.35704617       0.00000000
Si       1.35819504       1.35702216       1.35718347       0.00000000
Si      -1.35824391       1.35581670      -1.35862509       0.00000000
Si       1.35853713      -1.35508365      -1.36068455       0.00000000
Si      -2.70905958      -0.00294849      -2.71608658       0.00000000
Si      -2.71435383      -0.00039096       2.71412667       0.00000000
Si      -2.71432125       2.71476108      -0.00168189       0.00000000
Si       0.00011403       2.71495656       2.71416099       0.00000000
Si       0.00011403      -2.71510317       2.71429829       0.00000000
Si      -2.71562445      -2.71378368      -0.00030892       0.00000000
