10
Lattice="16.28999089631971 0.0 0.0 0.0 16.28999089631971 0.0 0.0 0.0 34.32429715621058" Properties=species:S:1:pos:R:3:initial_magmoms:R:1 pbc="T T T"
Si       2.38106043       0.15659577      -0.15020321       0.00000000
Si      -0.84176946       2.23524864      -0.22218130       0.00000000
Si      -0.49122495      -0.50657013       2.36357242       0.00000000
Si      -0.02244762      -1.95095556      -1.83710606       0.00000000
Si      -2.66771556      -1.38491064       2.04583223       0.00000000
Si       3.00723174      -2.08860606      -0.32676749       0.00000000
Si      -3.01941666       2.02883805       0.76986009       0.00000000
Si      -3.22338375       0.53312283      -2.01418521       0.00000000
Si       1.48072842      -0.95939955      -3.45632136       0.00000000
Si      -0.71488665       1.53818325       3.60501430       0.00000000
