10
Lattice="16.28999089631971 0.0 0.0 0.0 16.28999089631971 0.0 0.0 0.0 34.32429715621058" Properties=species:S:1:pos:R:3:initial_magmoms:R:1 pbc="T T T"
Si      -2.17759833      -0.90261261       0.15487132       0.00000000
Si       0.81502128      -0.47684088      -2.17001760       0.00000000
Si      -0.64788588       2.29433247      -0.03137243       0.00000000
Si       1.06150527      -0.83240271       2.00086737       0.00000000
Si      -2.39811606      -0.13255173       2.43208376       0.00000000
Si      -0.33070329       0.28333197       3.58785214       0.00000000
Si       0.63734625      -2.80212435      -2.20406733       0.00000000
Si       0.92040129       3.32447949       1.39881886       0.00000000
Si      -0.66034773       0.81555885      -3.58373322       0.00000000
Si       1.01825532      -3.19955148       1.76444148       0.00000000
