10
Lattice="16.28999089631971 0.0 0.0 0.0 16.28999089631971 0.0 0.0 0.0 34.32429715621058" Properties=species:S:1:pos:R:3:initial_magmoms:R:1 pbc="T T T"
Si      -1.78048250       0.73586817      -1.30940402       0.00000000
Si       0.25425432      -2.33016137      -0.29611588       0.00000000
Si       2.14060374       0.82290564      -0.67512498       0.00000000
Si      -0.33949989       0.24055443       2.36882404       0.00000000
Si       2.46943368      -2.41201862      -1.16211838       0.00000000
Si       3.55398930      -0.88388074       0.22376022       0.00000000
Si      -0.21841632      -3.16831445       1.87709389       0.00000000
Si       0.91196307      -1.55613483       3.24608492       0.00000000
Si      -2.37277601       2.87759592      -0.62518310       0.00000000
Si       2.62404207       2.68209963       0.62635012       0.00000000
