10
Lattice="16.28999089631971 0.0 0.0 0.0 16.28999089631971 0.0 0.0 0.0 34.32429715621058" Properties=species:S:1:pos:R:3:initial_magmoms:R:1 pbc="T T T"
Si       1.39220856      -1.11573468      -1.58698477       0.00000000
Si      -2.06741277      -0.41588370      -1.15576838       0.00000000
Si       0.61240626       2.34804060       0.02467918       0.00000000
Si      -0.94760559      -0.26966466       2.24501623       0.00000000
Si      -1.67039289       2.74154184       0.55169474       0.00000000
Si       0.33070329      -0.28333197      -3.58785214       0.00000000
Si      -3.05874072      -1.98597906       0.25907994       0.00000000
Si      -3.12994431       1.64812446      -0.98160680       0.00000000
Si      -1.68308280      -2.60162703       2.17163085       0.00000000
Si      -1.90837350       1.90658160       2.74199801       0.00000000
