10
Lattice="16.28999089631971 0.0 0.0 0.0 16.28999089631971 0.0 0.0 0.0 34.32429715621058" Properties=species:S:1:pos:R:3:initial_magmoms:R:1 pbc="T T T"
Si      -0.59229350       2.14172775       0.68422092       0.00000000
Si       1.78048250      -0.73586817       1.30940402       0.00000000
Si       0.73997667       0.75416184      -2.14870220       0.00000000
Si      -1.97169812      -1.37890940       0.20852022       0.00000000
Si      -0.01308673      -1.12194769      -3.35252463       0.00000000
Si      -2.17509506       2.78769141      -0.99753328       0.00000000
Si       2.03473682      -3.06602954       1.01328814       0.00000000
Si      -0.56282489       2.65416228      -2.72160937       0.00000000
Si       1.22995381       3.64744503       0.62133877       0.00000000
Si      -3.60087731      -0.89728578      -1.40863562       0.00000000
