10
Lattice="16.28999089631971 0.0 0.0 0.0 16.28999089631971 0.0 0.0 0.0 34.32429715621058" Properties=species:S:1:pos:R:3:initial_magmoms:R:1 pbc="T T T"
Si       0.60764958      -2.17491048       0.69379741       0.00000000
Si       1.54347750       1.47307212       1.14039109       0.00000000
Si      -2.18282742       1.02569985      -0.46282908       0.00000000
Si       0.08596233      -0.12080664      -2.69140397       0.00000000
Si       2.24961642      -1.18392462      -2.21934165       0.00000000
Si      -1.63944189      -1.90552275      -2.30975190       0.00000000
Si       0.82143954       2.21115573      -2.61801858       0.00000000
Si       2.81292462      -2.27107035      -0.08114268       0.00000000
Si       2.51529003       2.41523685      -1.00594274       0.00000000
Si      -3.63835358      -0.40483908       0.76666793       0.00000000
