10
Lattice="16.28999089631971 0.0 0.0 0.0 16.28999089631971 0.0 0.0 0.0 34.32429715621058" Properties=species:S:1:pos:R:3:initial_magmoms:R:1 pbc="T T T"
Si      -1.35516510       1.35573525       1.35529563       0.00000000
Si       1.35845568       1.35560866      -1.35759536       0.00000000
Si      -1.35692442      -1.35962856      -1.35711482       0.00000000
Si       1.35643572      -1.35954711       1.35999806       0.00000000
Si      -2.71393029      -0.01524744       2.69723910       0.00000000
Si      -2.71293660       2.71028037       0.00092676       0.00000000
Si       2.71472850       2.71250559       0.00010297       0.00000000
Si       0.00047241       2.71344226      -2.71402369       0.00000000
Si      -2.71410948      -0.00224802      -2.71412667       0.00000000
Si      -0.00721647       2.71556811       2.71388640       0.00000000
