10
Lattice="16.28999089631971 0.0 0.0 0.0 16.28999089631971 0.0 0.0 0.0 34.32429715621058" Properties=species:S:1:pos:R:3:initial_magmoms:R:1 pbc="T T T"
Si       1.35516510      -1.35573525      -1.35529563       0.00000000
Si       1.34794863       1.35983286       1.35859076       0.00000000
Si      -1.35777150       1.35454512      -1.35436887       0.00000000
Si      -1.35876519      -1.37098269       1.34194347       0.00000000
Si       2.64523536      -0.06177168       2.71175829       0.00000000
Si      -2.66652639      -0.02827944       2.70111775       0.00000000
Si       2.71349046       2.71157543       0.00000000       0.00000000
Si       2.71362078      -0.00012659      -2.71289099       0.00000000
Si      -0.00118917       2.71418183      -2.71261640       0.00000000
Si       2.71160082      -2.71528236       0.00470243       0.00000000
