10
Lattice="16.28999089631971 0.0 0.0 0.0 16.28999089631971 0.0 0.0 0.0 34.32429715621058" Properties=species:S:1:pos:R:3:initial_magmoms:R:1 pbc="T T T"
Si       0.91149066       1.77924267       1.21648810       0.00000000
Si      -1.17815796       1.51027848      -1.35790428       0.00000000
Si       1.54118061      -1.19408958      -1.33216104       0.00000000
Si      -1.81007964      -1.02483648       1.51607073       0.00000000
Si       0.57153465       0.67728933       3.30807464       0.00000000
Si      -3.29616747       0.95752620       1.25688782       0.00000000
Si      -2.53506609       0.16936713      -2.69741072       0.00000000
Si       0.17741439      -2.55063933      -2.69679289       0.00000000
Si      -2.48591916       2.85298173       0.00127000       0.00000000
Si      -2.65531887      -2.73004110       0.08079944       0.00000000
