10
Lattice="16.28999089631971 0.0 0.0 0.0 16.28999089631971 0.0 0.0 0.0 34.32429715621058" Properties=species:S:1:pos:R:3:initial_magmoms:R:1 pbc="T T T"
Si      -0.43559460       2.23700796      -0.10427727       0.00000000
Si      -0.23798061      -0.83496024       2.19030327       0.00000000
Si       2.28279915      -0.39350124      -0.52701555       0.00000000
Si      -1.45955142      -1.09341738      -1.53330154       0.00000000
Si       1.67039289      -2.74154184      -0.55169474       0.00000000
Si       0.72278730      -3.01120650       1.69332150       0.00000000
Si      -2.65077396       2.31886521       0.76172523       0.00000000
Si      -0.39701988      -3.15742554      -1.70746312       0.00000000
Si       0.95260662       0.72830961       3.48076027       0.00000000
Si      -0.89028108      -0.16392627      -3.58469430       0.00000000
