10
Lattice="16.28999089631971 0.0 0.0 0.0 16.28999089631971 0.0 0.0 0.0 34.32429715621058" Properties=species:S:1:pos:R:3:initial_magmoms:R:1 pbc="T T T"
Si      -1.34617302      -1.35605952       1.38979500       0.00000000
Si       1.37008674       1.36188204       1.38560743       0.00000000
Si       1.43863506      -1.39028481      -1.38612230       0.00000000
Si      -1.55092203       1.31470946      -1.37116719       0.00000000
Si      -2.68811064      -2.70265608       0.01116227       0.00000000
Si      -2.70889668       2.71678976       0.05482966       0.00000000
Si       2.71507059       2.72078081       0.00777789       0.00000000
Si      -2.70168021       0.00351177       2.74718441       0.00000000
Si       0.01141929      -2.71277217       2.74817982       0.00000000
Si       0.01174509       2.71771829       2.74807685       0.00000000
