10
Lattice="16.28999089631971 0.0 0.0 0.0 16.28999089631971 0.0 0.0 0.0 34.32429715621058" Properties=species:S:1:pos:R:3:initial_magmoms:R:1 pbc="T T T"
Si       1.35627282       1.35689693       1.35769833       0.00000000
Si      -1.35845568      -1.35560866       1.35759536       0.00000000
Si      -1.35798327       1.35783360      -1.35642833       0.00000000
Si       1.35759231      -1.35828022      -1.35659995       0.00000000
Si      -0.00013032       2.71170202       2.71289099       0.00000000
Si      -2.71362078       0.00012659       2.71289099       0.00000000
Si      -2.71393029       0.00112818      -2.71467585       0.00000000
Si      -0.00083079      -2.71515577      -2.71368045       0.00000000
Si      -0.00050499       2.71533469      -2.71378342       0.00000000
Si      -2.71480995       2.71430842       0.00027459       0.00000000
