10
Lattice="16.28999089631971 0.0 0.0 0.0 16.28999089631971 0.0 0.0 0.0 34.32429715621058" Properties=species:S:1:pos:R:3:initial_magmoms:R:1 pbc="T T T"
Si       1.93821678       0.66735243      -1.16824493       0.00000000
Si       1.41674130      -1.27966095       1.43267637       0.00000000
Si      -1.28645388       1.45383363       1.41606340       0.00000000
Si      -1.32364395      -1.38297213      -1.47784172       0.00000000
Si       1.33289667       0.15799671      -3.36018723       0.00000000
Si       2.64025062       2.62104471       0.09581290       0.00000000
Si      -2.71889874      -2.61109152       0.03827161       0.00000000
Si       0.07371225      -2.62397691       2.80269027       0.00000000
Si      -2.64666888       0.08801487       2.79942946       0.00000000
Si      -2.65310343       2.79466353      -0.08084749       0.00000000
