10
Lattice="16.28999089631971 0.0 0.0 0.0 16.28999089631971 0.0 0.0 0.0 34.32429715621058" Properties=species:S:1:pos:R:3:initial_magmoms:R:1 pbc="T T T"
Si      -0.01725111      -1.31256675      -1.87551497       0.00000000
Si       0.56674539      -1.52954955       1.64612556       0.00000000
Si      -2.30915637       0.25386336       0.05972431       0.00000000
Si       0.70988562       2.23014987       0.10692025       0.00000000
Si      -2.01979710       1.42446276      -2.19431922       0.00000000
Si       2.10751875      -2.18838231      -1.58279720       0.00000000
Si      -0.32808060       3.08473956      -1.77233607       0.00000000
Si      -2.52884331       1.04909229       2.29766974       0.00000000
Si      -0.61745616       0.03811860      -3.62615808       0.00000000
Si       1.41608970      -3.44701287       0.50597475       0.00000000
