10
Lattice="16.28999089631971 0.0 0.0 0.0 16.28999089631971 0.0 0.0 0.0 34.32429715621058" Properties=species:S:1:pos:R:3:initial_magmoms:R:1 pbc="T T T"
Si       1.08198180      -1.70267967       1.17210675       0.00000000
Si      -2.32205805      -0.38242404       0.28537237       0.00000000
Si       1.67585004       0.40042449      -1.63400908       0.00000000
Si      -0.02585223       2.22956343       0.83150656       0.00000000
Si       3.10094811      -0.53561520       1.29529673       0.00000000
Si      -1.41973866       2.97906633      -0.98246491       0.00000000
Si       3.26989170       1.31960403      -0.16695347       0.00000000
Si      -2.22195600      -0.80322732       2.67595803       0.00000000
Si      -0.01482390      -1.51772301       3.24268681       0.00000000
Si      -2.61619029      -2.43494775      -0.85625440       0.00000000
