10
Lattice="16.28999089631971 0.0 0.0 0.0 16.28999089631971 0.0 0.0 0.0 34.32429715621058" Properties=species:S:1:pos:R:3:initial_magmoms:R:1 pbc="T T T"
Si       0.25174566       0.20489562       2.33982000       0.00000000
Si       0.48195594       2.23287030      -0.66946147       0.00000000
Si       1.07023671      -1.78660575      -1.16438378       0.00000000
Si      -2.22550722      -0.87664635      -0.16592375       0.00000000
Si      -0.88319493       2.27090745       2.67362397       0.00000000
Si      -1.09460655       2.53588059      -2.44059619       0.00000000
Si       0.90129312      -3.64182498       0.29786642       0.00000000
Si      -0.52380495      -2.70578529      -2.63143939       0.00000000
Si      -3.23848458      -0.52457058       1.98861359       0.00000000
Si      -1.44283788      -0.98956863       3.45326649       0.00000000
