10
Lattice="16.28999089631971 0.0 0.0 0.0 16.28999089631971 0.0 0.0 0.0 34.32429715621058" Properties=species:S:1:pos:R:3:initial_magmoms:R:1 pbc="T T T"
Si      -1.22994332       1.42254054       1.35463317       0.00000000
Si      -1.60292853      -1.06777692      -1.39393936       0.00000000
Si       1.50100784      -1.28941866       1.31855831       0.00000000
Si       0.70460603       1.99471050      -1.25278091       0.00000000
Si      -0.12538413       1.20539484      -3.45463401       0.00000000
Si      -2.55213054      -2.68731243      -0.01762554       0.00000000
Si      -3.42547002       0.64343871      -1.27878982       0.00000000
Si      -2.57878098       0.06744060       2.69187078       0.00000000
Si      -2.72343618       2.59713099      -0.01473200       0.00000000
Si       0.13691908      -2.65210974       2.69149321       0.00000000
