10
Lattice="16.28999089631971 0.0 0.0 0.0 16.28999089631971 0.0 0.0 0.0 34.32429715621058" Properties=species:S:1:pos:R:3:initial_magmoms:R:1 pbc="T T T"
Si      -1.44321255       1.32905223      -1.29975889       0.00000000
Si      -1.39525479      -1.22811939       1.51611333       0.00000000
Si       1.32364395       1.38297213       1.47784172       0.00000000
Si       0.43139178       2.09930859      -2.56165805       0.00000000
Si       2.65654062       1.54096884      -1.88234551       0.00000000
Si       3.26186073       2.05032456       0.30959679       0.00000000
Si       0.02467935      -2.59576263       2.89611217       0.00000000
Si      -3.29297463      -2.10344625       0.44023686       0.00000000
Si      -2.68646535       0.14463891       2.91578687       0.00000000
Si       2.74038525       0.10331118       2.91051809       0.00000000
