10
Lattice="16.28999089631971 0.0 0.0 0.0 16.28999089631971 0.0 0.0 0.0 34.32429715621058" Properties=species:S:1:pos:R:3:initial_magmoms:R:1 pbc="T T T"
Si       1.22994332      -1.42254054      -1.35463317       0.00000000
Si      -1.34883766      -1.35509994       1.33723761       0.00000000
Si      -1.49349286       1.17459045      -1.36936517       0.00000000
Si       1.36815093       1.36014984       1.33613923       0.00000000
Si       1.93454935       0.57216996      -2.60741408       0.00000000
Si       0.22174544       2.35406790      -2.46812532       0.00000000
Si      -2.19552670      -0.77910183      -2.63342299       0.00000000
Si      -0.37298521      -2.49031746      -2.74857253       0.00000000
Si      -2.70548515      -0.00125433       2.69349432       0.00000000
Si       0.00890190      -2.71393029       2.69291081       0.00000000
