10
Lattice="16.28999089631971 0.0 0.0 0.0 16.28999089631971 0.0 0.0 0.0 34.32429715621058" Properties=species:S:1:pos:R:3:initial_magmoms:R:1 pbc="T T T"
Si      -1.35663120       1.35304740      -1.36078752       0.00000000
Si       1.35576783       1.36246302       1.35687455       0.00000000
Si       1.35747828      -1.35959598      -1.36068455       0.00000000
Si      -1.36549296      -1.37039625       1.36724049       0.00000000
Si       2.62120761      -0.00027693       2.78957151       0.00000000
Si       2.71437012       2.71016730      -0.00236838       0.00000000
Si      -2.71248048      -2.71542897      -0.00387865       0.00000000
Si      -2.71578735       2.71280628      -0.00127000       0.00000000
Si       0.00144981       2.71233387      -2.71817694       0.00000000
Si      -2.71391400      -0.00265527      -2.71810829       0.00000000
