10
Lattice="16.28999089631971 0.0 0.0 0.0 16.28999089631971 0.0 0.0 0.0 34.32429715621058" Properties=species:S:1:pos:R:3:initial_magmoms:R:1 pbc="T T T"
Si      -1.35773956       1.35883035      -1.35567320       0.00000000
Si      -1.35700651      -1.35762489       1.35790428       0.00000000
Si       1.35743921       1.35762489       1.35811022       0.00000000
Si       1.35796049      -1.36071999      -1.35605077       0.00000000
Si      -0.00890190       2.71393029      -2.69291081       0.00000000
Si      -2.71438705       2.71267596       0.00058351       0.00000000
Si      -2.71396351      -0.00040725       2.71484748       0.00000000
Si       0.00103672       2.71440270       2.71467585       0.00000000
Si       0.00001193      -2.71472850       2.71464153       0.00000000
Si       2.71475134       0.00070047       2.71464153       0.00000000
