10
Lattice="16.28999089631971 0.0 0.0 0.0 16.28999089631971 0.0 0.0 0.0 34.32429715621058" Properties=species:S:1:pos:R:3:initial_magmoms:R:1 pbc="T T T"
Si      -1.35829278       1.35586557       1.36205752       0.00000000
Si       1.35602847      -1.36085031       1.36143968       0.00000000
Si       1.38069153       1.34399016      -1.36898074       0.00000000
Si      -1.36029645      -1.37039625      -1.37705381       0.00000000
Si       2.71340901      -2.71308321       0.00216243       0.00000000
Si       2.71694394       2.71047681       0.00830648       0.00000000
Si      -2.71588509       2.71257822       0.00367270       0.00000000
Si      -2.71441899      -2.71425609       0.00137297       0.00000000
Si       0.00013032       2.71274112       2.71913802       0.00000000
Si       2.71492398      -0.00187335       2.71893207       0.00000000
