10
Lattice="16.28999089631971 0.0 0.0 0.0 16.28999089631971 0.0 0.0 0.0 34.32429715621058" Properties=species:S:1:pos:R:3:initial_magmoms:R:1 pbc="T T T"
Si      -1.31176854       1.33436277      -1.40326386       0.00000000
Si       1.33625241       1.36648665       1.37728722       0.00000000
Si      -1.38069153      -1.34399016       1.36898074       0.00000000
Si       1.34048781      -1.39623219      -1.59723744       0.00000000
Si      -2.06454573      -0.56177694      -2.76265236       0.00000000
Si       2.67173919      -2.70469386      -0.01072978       0.00000000
Si       2.66680332       2.73517646       0.02002824       0.00000000
Si      -0.44040015      -2.45083050      -2.91467476       0.00000000
Si       2.68956045       0.01379763       2.73175907       0.00000000
Si      -0.02466306      -2.70484047       2.73042042       0.00000000
