10
Lattice="16.28999089631971 0.0 0.0 0.0 16.28999089631971 0.0 0.0 0.0 34.32429715621058" Properties=species:S:1:pos:R:3:initial_magmoms:R:1 pbc="T T T"
Si       1.35764118       1.35574333      -1.35766401       0.00000000
Si       1.35762489      -1.35734796       1.35728644       0.00000000
Si      -1.35842310      -1.35687555      -1.35708050       0.00000000
Si      -1.35759231       1.35828022       1.35659995       0.00000000
Si       2.71681362      -0.00226431      -2.71083153       0.00000000
Si       2.71375110      -0.00021177       2.71471018       0.00000000
Si       2.71479366      -2.71461447      -0.00020595       0.00000000
Si      -0.00131949       2.71517715       2.71429829       0.00000000
Si      -2.71489140      -2.71489140       0.00010297       0.00000000
Si      -2.71604799       0.00267156       2.71419531       0.00000000
