10
Lattice="16.28999089631971 0.0 0.0 0.0 16.28999089631971 0.0 0.0 0.0 34.32429715621058" Properties=species:S:1:pos:R:3:initial_magmoms:R:1 pbc="T T T"
Si       1.35612621       1.35713619       1.35742374       0.00000000
Si       1.35716877      -1.35726651      -1.35749239       0.00000000
Si      -1.35762489       1.35734796      -1.35728644       0.00000000
Si      -1.35808101      -1.35928647       1.35738941       0.00000000
Si       2.71249677       0.00239463      -2.71364613       0.00000000
Si       0.00001629       2.71309129      -2.71495045       0.00000000
Si       2.71445157      -2.71407690      -0.00041189       0.00000000
Si       2.71292031      -0.00216657       2.71580856       0.00000000
Si       2.71446786       2.71514728      -0.00013730       0.00000000
Si      -2.71536381      -2.71498914       0.00006865       0.00000000
