10
Lattice="16.28999089631971 0.0 0.0 0.0 16.28999089631971 0.0 0.0 0.0 34.32429715621058" Properties=species:S:1:pos:R:3:initial_magmoms:R:1 pbc="T T T"
Si      -1.35640250       1.35677781       1.35656563       0.00000000
Si       1.35731212      -1.35692442       1.35653131       0.00000000
Si      -1.35743921      -1.35762489      -1.35811022       0.00000000
Si       1.35700261       1.35873261      -1.35783563       0.00000000
Si       2.71363381      -0.00076563       2.71337153       0.00000000
Si      -2.71408734      -0.00164529       2.71319991       0.00000000
Si      -0.00127876      -2.71394658       2.71357748       0.00000000
Si       0.00005702       2.71487511       2.71371477       0.00000000
Si      -2.71517877       0.00120546      -2.71378342       0.00000000
Si      -2.71459233       2.71458189      -0.00054919       0.00000000
