10
Lattice="16.28999089631971 0.0 0.0 0.0 16.28999089631971 0.0 0.0 0.0 34.32429715621058" Properties=species:S:1:pos:R:3:initial_magmoms:R:1 pbc="T T T"
Si      -0.45124929       1.05606441       2.02952818       0.00000000
Si      -1.79354529      -0.77636511      -1.31335132       0.00000000
Si       0.96589926       1.84269222      -1.26914160       0.00000000
Si       1.93953627      -1.55064510       0.06349999       0.00000000
Si      -0.34899696      -2.10120800      -2.67925316       0.00000000
Si      -2.57601915       1.93187997       1.73681041       0.00000000
Si       2.36374416       0.64187487      -2.71773072       0.00000000
Si       1.26772038       2.87523387       2.04562628       0.00000000
Si       1.04989050      -3.47280713      -1.18789594       0.00000000
Si       2.71842633       2.74652658       0.08807620       0.00000000
