10
Lattice="16.28999089631971 0.0 0.0 0.0 16.28999089631971 0.0 0.0 0.0 34.32429715621058" Properties=species:S:1:pos:R:3:initial_magmoms:R:1 pbc="T T T"
Si       1.83710475       0.90007137      -1.27195619       0.00000000
Si      -1.91171295       1.49374413       0.14131321       0.00000000
Si      -0.93079431      -1.84427235      -1.30109754       0.00000000
Si       1.98216720      -0.62962479       2.13562464       0.00000000
Si       0.22503006       1.02651435       2.92800148       0.00000000
Si      -2.14354246       0.46938006       2.59097102       0.00000000
Si       0.45577791       2.14477398      -2.78583016       0.00000000
Si      -2.27387386      -0.57360348      -2.79399935       0.00000000
Si      -1.03899249       3.32496819      -1.37956292       0.00000000
Si      -3.63012159       0.63267102      -1.28997646       0.00000000
