10
Lattice="16.28999089631971 0.0 0.0 0.0 16.28999089631971 0.0 0.0 0.0 34.32429715621058" Properties=species:S:1:pos:R:3:initial_magmoms:R:1 pbc="T T T"
Si       1.35567009      -1.35837423      -1.36367076       0.00000000
Si      -1.36086660       1.35842310      -1.36253806       0.00000000
Si      -1.35394335      -1.36394541       1.37623346       0.00000000
Si       1.35881406       1.35045729       1.39267481       0.00000000
Si       2.71355562      -2.71404432      -0.00576649       0.00000000
Si      -2.71640637      -2.71453302      -0.00473676       0.00000000
Si       2.71534752       2.71808424      -0.00429054       0.00000000
Si       2.71335494       0.00004887      -2.72030504       0.00000000
Si      -0.00164529      -2.71476108      -2.72013342       0.00000000
Si      -2.71834488       2.71801908      -0.00185351       0.00000000
