10
Lattice="16.28999089631971 0.0 0.0 0.0 16.28999089631971 0.0 0.0 0.0 34.32429715621058" Properties=species:S:1:pos:R:3:initial_magmoms:R:1 pbc="T T T"
Si      -1.35731538      -1.35638685      -1.35646266       0.00000000
Si       1.35788553      -1.35567009       1.35790428       0.00000000
Si       1.35768485       1.35842310      -1.35663428       0.00000000
Si      -1.35567009       1.35837423       1.36367076       0.00000000
Si      -0.01088172      -2.71065600       2.70146099       0.00000000
Si       2.71280858      -2.71230129       0.00037757       0.00000000
Si      -0.00035838      -2.71360449      -2.71340586       0.00000000
Si       2.71408734       0.00164529      -2.71319991       0.00000000
Si      -2.71546155       0.00144981      -2.71347450       0.00000000
Si      -2.71562445      -2.71366965       0.00092676       0.00000000
