10
Lattice="16.28999089631971 0.0 0.0 0.0 16.28999089631971 0.0 0.0 0.0 34.32429715621058" Properties=species:S:1:pos:R:3:initial_magmoms:R:1 pbc="T T T"
Si       0.55079748       0.71105850       2.18323247       0.00000000
Si      -1.71180207      -1.65552012       0.07980404       0.00000000
Si      -1.03361679       1.65825684      -1.48102560       0.00000000
Si       1.46731916      -1.82708640      -0.80775414       0.00000000
Si       0.06502968      -1.81729611      -2.88420365       0.00000000
Si      -0.25026327       0.47718297      -3.40524678       0.00000000
Si      -3.16278495       1.47553191      -0.37169802       0.00000000
Si      -3.33172854      -0.37968732       1.09055218       0.00000000
Si       1.85359905      -1.18894194       2.75613963       0.00000000
Si       1.10053564      -3.06505147       1.55231721       0.00000000
