10
Lattice="16.28999089631971 0.0 0.0 0.0 16.28999089631971 0.0 0.0 0.0 34.32429715621058" Properties=species:S:1:pos:R:3:initial_magmoms:R:1 pbc="T T T"
Si       1.41793047       1.55603709      -1.20214194       0.00000000
Si       1.33125138      -1.30846167       1.58650766       0.00000000
Si      -1.78088796      -1.05459831      -1.31743732       0.00000000
Si      -1.34048781       1.39623219       1.59723744       0.00000000
Si      -3.40503354       0.83445525      -1.16541493       0.00000000
Si      -2.65225635       2.73059496       0.19397358       0.00000000
Si      -2.72995965      -2.67493203       0.08875582       0.00000000
Si       2.56339440      -2.84855085       0.26541621       0.00000000
Si       2.70850572       2.83113684       0.26795621       0.00000000
Si      -0.00777033      -2.66084118       2.96838061       0.00000000
