10
Lattice="16.28999089631971 0.0 0.0 0.0 16.28999089631971 0.0 0.0 0.0 34.32429715621058" Properties=species:S:1:pos:R:3:initial_magmoms:R:1 pbc="T T T"
Si      -1.26543978       1.36273995      -1.43269696       0.00000000
Si       0.96904323       1.64305827       1.39095860       0.00000000
Si       1.45595133      -1.36728486      -1.39504319       0.00000000
Si      -1.79857890      -1.06779321       1.38179400       0.00000000
Si       0.76129686       0.36351135       3.44623001       0.00000000
Si      -2.48777622       2.76824115       0.04568567       0.00000000
Si      -3.51331317       0.94754043       1.13249649       0.00000000
Si      -2.62120761       0.00027693      -2.78957151       0.00000000
Si       2.78133831       2.63013453       0.02756243       0.00000000
Si      -2.65740399      -2.77221591      -0.00278027       0.00000000
