10
Lattice="16.28999089631971 0.0 0.0 0.0 16.28999089631971 0.0 0.0 0.0 34.32429715621058" Properties=species:S:1:pos:R:3:initial_magmoms:R:1 pbc="T T T"
Si      -1.46264652      -0.99492804      -1.50134560       0.00000000
Si       0.42770928      -1.26006408       1.96323114       0.00000000
Si       2.31771581      -0.15742656      -0.48809178       0.00000000
Si      -0.53877546       2.31350580       0.15277753       0.00000000
Si       1.63370359       0.46063233       3.01515233       0.00000000
Si      -0.93867867      -3.22146153      -1.03154868       0.00000000
Si      -2.43299295       1.96504641       1.59443314       0.00000000
Si      -0.88731630      -0.06561612      -3.64036834       0.00000000
Si       2.61662102       1.05450057      -2.51140725       0.00000000
Si      -0.40970979       3.18637287      -2.07219330       0.00000000
