10
Lattice="16.28999089631971 0.0 0.0 0.0 16.28999089631971 0.0 0.0 0.0 34.32429715621058" Properties=species:S:1:pos:R:3:initial_magmoms:R:1 pbc="T T T"
Si       1.37536863      -1.29857364      -1.44477912       0.00000000
Si      -1.31344641       1.44285417      -1.43836048       0.00000000
Si       1.98328211       0.87449607       1.13362920       0.00000000
Si      -1.81229508      -0.98707626       1.36339617       0.00000000
Si      -2.65326633       2.75840199       0.05234458       0.00000000
Si      -2.78133831      -2.63013453      -0.02756243       0.00000000
Si       2.62413071      -2.81307123      -0.04245918       0.00000000
Si       0.03114648      -2.62979244      -2.81957097       0.00000000
Si      -3.44207700       0.96161499       1.48239857       0.00000000
Si      -2.68817580       0.08030970      -2.81950232       0.00000000
