10
Lattice="16.28999089631971 0.0 0.0 0.0 16.28999089631971 0.0 0.0 0.0 34.32429715621058" Properties=species:S:1:pos:R:3:initial_magmoms:R:1 pbc="T T T"
Si       0.53877546      -2.31350580      -0.15277753       0.00000000
Si       0.12906567       0.87286707      -2.22497083       0.00000000
Si      -1.89421749      -0.34845939       1.44165561       0.00000000
Si      -2.85474105       1.16019009      -0.10043295       0.00000000
Si      -0.60364224       0.92664036       2.91175376       0.00000000
Si       0.29160729       2.70587067       1.61023507       0.00000000
Si      -1.18412010       2.77419744      -1.86600713       0.00000000
Si       2.46285971       0.96312996      -2.67376127       0.00000000
Si      -0.92387106      -3.30843384      -1.65412313       0.00000000
Si       2.85649127      -2.47093236      -0.64086931       0.00000000
