10
Lattice="16.28999089631971 0.0 0.0 0.0 16.28999089631971 0.0 0.0 0.0 34.32429715621058" Properties=species:S:1:pos:R:3:initial_magmoms:R:1 pbc="T T T"
Si       1.45710792      -1.83097971      -0.31739695       0.00000000
Si      -1.71746285      -0.12976614      -1.63181232       0.00000000
Si      -1.61029419      -0.49459698       1.73972797       0.00000000
Si       1.72540422       1.78471611      -0.38165207       0.00000000
Si       0.34974630       2.40036408      -2.29420298       0.00000000
Si      -1.13709087       3.14967150      -0.51277096       0.00000000
Si       1.63944189       1.90552275       2.30975190       0.00000000
Si      -0.54338553       2.93122260       1.84692281       0.00000000
Si       1.82420307      -2.31945165       1.93403793       0.00000000
Si      -2.94033914       1.83576897      -1.20330756       0.00000000
