10
Lattice="16.28999089631971 0.0 0.0 0.0 16.28999089631971 0.0 0.0 0.0 34.32429715621058" Properties=species:S:1:pos:R:3:initial_magmoms:R:1 pbc="T T T"
Si       1.20599431       1.72069641       1.05192119       0.00000000
Si      -1.71523830      -1.17947745       1.09876015       0.00000000
Si      -0.42770928       1.26006408      -1.96323114       0.00000000
Si       1.71280390      -1.78189794      -0.13928876       0.00000000
Si       1.89000653       1.10263752      -2.45132292       0.00000000
Si      -0.22174544      -2.35406790       2.46812532       0.00000000
Si       2.50816315       0.35919450       2.44553306       0.00000000
Si       0.88281374      -2.57121360      -2.34114187       0.00000000
Si      -2.94738132       0.36061173       2.41985160       0.00000000
Si      -1.36638795      -1.96139745      -2.99477982       0.00000000
