10
Lattice="16.28999089631971 0.0 0.0 0.0 16.28999089631971 0.0 0.0 0.0 34.32429715621058" Properties=species:S:1:pos:R:3:initial_magmoms:R:1 pbc="T T T"
Si       0.95965042       0.08741214       2.16256923       0.00000000
Si      -2.19763570      -0.61763535       0.66029687       0.00000000
Si       1.19734758      -1.42340391      -1.55701964       0.00000000
Si      -0.03060891       2.24593488      -0.99094301       0.00000000
Si      -2.34227461       1.97863227      -2.06642682       0.00000000
Si      -2.74968751       1.10183931       2.24759056       0.00000000
Si      -0.63599485       1.35293337       3.41345029       0.00000000
Si       2.35946641       2.46886353      -1.66397421       0.00000000
Si      -3.54841879      -0.34872003      -1.40592400       0.00000000
Si       3.56592010      -0.86626962      -1.21998918       0.00000000
