10
Lattice="16.28999089631971 0.0 0.0 0.0 16.28999089631971 0.0 0.0 0.0 34.32429715621058" Properties=species:S:1:pos:R:3:initial_magmoms:R:1 pbc="T T T"
Si      -0.75865855       1.58245947       1.60184719       0.00000000
Si       0.03060891      -2.24593488       0.99094301       0.00000000
Si       2.39007532       0.22292865      -0.67303119       0.00000000
Si      -2.31166570      -0.26730261      -1.07548380       0.00000000
Si      -2.97732397       0.94099185       2.08098033       0.00000000
Si       0.17517289       1.21401225       3.69666022       0.00000000
Si      -2.10391933       1.01224431      -3.13075522       0.00000000
Si       1.22795649      -3.66933879      -0.56607663       0.00000000
Si       0.99025933      -2.15852274       3.15351224       0.00000000
Si      -2.16702679      -2.86357023       1.65123989       0.00000000
