10
Lattice="16.28999089631971 0.0 0.0 0.0 16.28999089631971 0.0 0.0 0.0 34.32429715621058" Properties=species:S:1:pos:R:3:initial_magmoms:R:1 pbc="T T T"
Si       0.99132795       1.57009536      -1.41484832       0.00000000
Si      -1.16289423      -1.64183652      -1.22757485       0.00000000
Si       1.37565792      -0.61564797       1.91255091       0.00000000
Si      -1.48683717       0.74930742       1.78143202       0.00000000
Si      -2.06720914      -2.53013022       0.66239066       0.00000000
Si      -0.34974630      -2.40036408       2.29420298       0.00000000
Si       2.11113513       1.71631440       1.98593629       0.00000000
Si      -3.29008544      -0.56459511       1.09089542       0.00000000
Si       0.57117627      -2.88567576      -2.09776492       0.00000000
Si       3.05874072       1.98597906      -0.25907994       0.00000000
