10
Lattice="16.28999089631971 0.0 0.0 0.0 16.28999089631971 0.0 0.0 0.0 34.32429715621058" Properties=species:S:1:pos:R:3:initial_magmoms:R:1 pbc="T T T"
Si       1.35758291       1.35628911       1.35670293       0.00000000
Si      -1.35767243       1.35744570      -1.35721779       0.00000000
Si       1.35815632      -1.35733167      -1.35738941       0.00000000
Si      -1.35799823      -1.35811359       1.35690887       0.00000000
Si       0.00268918      -2.71243161       2.71580856       0.00000000
Si      -0.00051995       2.71340901      -2.71515640       0.00000000
Si      -2.71510184      -2.71423980      -0.00034324       0.00000000
Si      -0.00094349       2.71329295       2.71632342       0.00000000
Si       2.71527459       2.71463579      -0.00017162       0.00000000
Si      -2.71508555       2.71498438      -0.00006865       0.00000000
