10
Lattice="16.28999089631971 0.0 0.0 0.0 16.28999089631971 0.0 0.0 0.0 34.32429715621058" Properties=species:S:1:pos:R:3:initial_magmoms:R:1 pbc="T T T"
Si       1.35607734      -1.35894438      -1.35694320       0.00000000
Si      -1.35724859      -1.35736425       1.35859076       0.00000000
Si       1.35725022       1.35757602       1.35883104       0.00000000
Si      -1.35737891       1.36076886      -1.35557023       0.00000000
Si       2.71432125      -2.71476108       0.00168189       0.00000000
Si      -2.71592486       2.71337643       0.00082378       0.00000000
Si       2.71443528       0.00019548       2.71584288       0.00000000
Si      -2.71389921      -2.71640637       0.00075513       0.00000000
Si      -0.00013032       2.71460321       2.71580856       0.00000000
Si      -0.00003258      -2.71515204       2.71580856       0.00000000
