10
Lattice="16.28999089631971 0.0 0.0 0.0 16.28999089631971 0.0 0.0 0.0 34.32429715621058" Properties=species:S:1:pos:R:3:initial_magmoms:R:1 pbc="T T T"
Si      -1.34422215      -1.33121880      -1.37479184       0.00000000
Si      -1.37536863       1.29857364       1.44477912       0.00000000
Si       1.36901486       1.38491064      -1.37589022       0.00000000
Si       1.24876208      -1.51449759       1.40231994       0.00000000
Si       0.60791348       2.17306971       2.57840832       0.00000000
Si       2.09400131       0.19070703       2.83759123       0.00000000
Si      -2.70075561      -2.69884575       0.02217351       0.00000000
Si       0.01024478      -2.69115687      -2.73365720       0.00000000
Si      -2.68881504       2.74142781       0.00641865       0.00000000
Si       2.74353248      -2.69469180      -0.00394730       0.00000000
