10
Lattice="16.28999089631971 0.0 0.0 0.0 16.28999089631971 0.0 0.0 0.0 34.32429715621058" Properties=species:S:1:pos:R:3:initial_magmoms:R:1 pbc="T T T"
Si      -1.17439497       1.69148844      -1.03601084       0.00000000
Si       0.13321962       0.32962815       2.35022026       0.00000000
Si       2.17764720       0.20641059      -0.99204139       0.00000000
Si      -0.99163746      -2.16424053      -0.35573721       0.00000000
Si      -0.20396709      -1.49571522      -2.78404530       0.00000000
Si       0.73607994       3.21418383      -0.73550145       0.00000000
Si      -1.69005492       0.48664746      -3.04322821       0.00000000
Si       2.83398759       2.26942506       0.16393293       0.00000000
Si       0.35170110      -3.41374869       1.27597214       0.00000000
Si       2.30453001      -0.49065480       2.83515421       0.00000000
