10
Lattice="16.28999089631971 0.0 0.0 0.0 16.28999089631971 0.0 0.0 0.0 34.32429715621058" Properties=species:S:1:pos:R:3:initial_magmoms:R:1 pbc="T T T"
Si       0.44570569      -2.07772434      -0.92291222       0.00000000
Si      -2.25593284       0.37444194       0.38402045       0.00000000
Si       1.30290992       1.08664074       1.58825477       0.00000000
Si       0.74625130       1.66304400      -1.58588639       0.00000000
Si       0.14109132       3.03228643       0.77603847       0.00000000
Si      -0.46385365       0.64586592      -3.36326814       0.00000000
Si      -0.48812575      -1.70927712      -3.01772524       0.00000000
Si      -2.20979956       2.70477109       0.77617577       0.00000000
Si       2.75318419      -2.08973007      -1.10246272       0.00000000
Si       3.48129832       0.90225423       0.74267523       0.00000000
