10
Lattice="16.290000149 0.0 0.0 0.0 16.290000149 0.0 0.0 0.0 29.1751946751" Properties=species:S:1:pos:R:3:initial_magmoms:R:1 pbc="T T T"
Si      -1.33340167      -1.36491631       1.36843333       0.00000000
Si       1.34596126      -1.35063812      -1.37558125       0.00000000
Si       1.35879778       1.34671060       1.36878343       0.00000000
Si      -1.37147140       1.34376211      -1.36146046       0.00000000
Si      -2.69760773      -2.70747947      -0.00729380       0.00000000
Si       2.71463078       2.69312798      -0.00373442       0.00000000
Si      -0.01117494       2.73421136       2.67904143       0.00000000
Si       2.72000648      -2.69755886      -0.04151630       0.00000000
Si      -0.02085120       2.70817994      -2.71720258       0.00000000
Si      -2.75768526      -0.00350235       2.66839248       0.00000000
