10
Lattice="16.290000149 0.0 0.0 0.0 16.290000149 0.0 0.0 0.0 29.1751946751" Properties=species:S:1:pos:R:3:initial_magmoms:R:1 pbc="T T T"
H        0.45255249       1.28519956      -0.65953445       0.00000000
Si      -0.81731818       0.97899643       1.94481848       0.00000000
Si      -1.87999634      -0.70830550      -1.27346807       0.00000000
Si       2.01223856      -1.36588393      -0.08084446       0.00000000
H        0.97342525      -0.25482447      -2.47749918       0.00000000
H       -0.65464624      -2.66152538      -1.04841062       0.00000000
Si      -2.32363820       2.28327158       0.65066519       0.00000000
Si       3.17808129       0.69048424      -0.67829410       0.00000000
Si       0.78506398      -2.95329558      -1.49143595       0.00000000
Si       2.00795429       0.85051720      -2.69470851       0.00000000
