10
Lattice="16.290000149 0.0 0.0 0.0 16.290000149 0.0 0.0 0.0 29.1751946751" Properties=species:S:1:pos:R:3:initial_magmoms:R:1 pbc="T T T"
Si      -0.43815213       0.24770574      -2.28344504       0.00000000
Si       0.81015058       1.85836322       1.18226175       0.00000000
Si      -1.87440887      -0.80158204       1.19542559       0.00000000
Si       1.63330057      -1.73493389       0.08355601       0.00000000
Si       2.18616689       0.59518774       2.59869702       0.00000000
Si      -0.67087108      -2.19735812       2.63763132       0.00000000
Si      -2.15808293       1.87665689      -2.17715981       0.00000000
Si      -0.48702213      -2.04626837      -2.95141112       0.00000000
Si       1.71592346      -2.42927885      -2.14570895       0.00000000
Si       0.64461160      -3.52063719       1.23787842       0.00000000
