10
Lattice="16.290000149 0.0 0.0 0.0 16.290000149 0.0 0.0 0.0 29.1751946751" Properties=species:S:1:pos:R:3:initial_magmoms:R:1 pbc="T T T"
Si       1.35575155       1.36645408       1.33884968       0.00000000
Si      -1.32848046       1.36075258      -1.37403497       0.00000000
Si       1.38401470      -1.35549743      -1.33397743       0.00000000
Si      -1.34605086      -1.35453143       1.37680661       0.00000000
Si       2.71542899       0.00045612       2.67346896       0.00000000
Si      -2.69851997      -0.00861741      -2.69902643       0.00000000
Si       0.06077799      -2.69529455       2.70605766       0.00000000
Si       0.02718801      -2.71841006      -2.68411791       0.00000000
Si      -2.69317685       2.71467965      -0.02617015       0.00000000
Si      -0.02357163       2.71342532       2.69494191       0.00000000
