10
Lattice="16.290000149 0.0 0.0 0.0 16.290000149 0.0 0.0 0.0 29.1751946751" Properties=species:S:1:pos:R:3:initial_magmoms:R:1 pbc="T T T"
Si      -1.25905411      -1.36761067       1.42478522       0.00000000
Si      -1.45591876       1.41364621      -1.21354222       0.00000000
Si       0.95744476      -1.26516286      -1.75780548       0.00000000
Si       1.38784285       1.38091960       1.34001086       0.00000000
Si       2.34556454       0.17286948      -2.93718355       0.00000000
Si      -2.68517846       0.01003464       2.71756727       0.00000000
Si      -2.06920469      -3.22597389       0.24252347       0.00000000
Si      -0.19039752       2.89795845      -2.53380731       0.00000000
Si       2.73769743       0.01922220       2.71537621       0.00000000
Si       0.02554272       2.72901485       2.73121543       0.00000000
