10
Lattice="16.290000149 0.0 0.0 0.0 16.290000149 0.0 0.0 0.0 29.1751946751" Properties=species:S:1:pos:R:3:initial_magmoms:R:1 pbc="T T T"
Si       1.42521211       1.43391097       1.16782469       0.00000000
Si       1.43459678      -1.24509358      -1.36951281       0.00000000
Si      -1.29016801       1.41235930      -1.36076025       0.00000000
Si      -1.64289538      -1.05489154       1.43104330       0.00000000
H        0.24770411      -2.67004505       1.69516634       0.00000000
H       -1.09665910       1.41121900       2.80633280       0.00000000
Si      -0.06213006       2.51656067       2.58912348       0.00000000
Si      -2.62368371       2.48228651       0.26000934       0.00000000
Si      -3.32021154       0.62439571       1.68116224       0.00000000
Si       2.86057290      -2.46197288       0.01231193       0.00000000
