10
Lattice="16.290000149 0.0 0.0 0.0 16.290000149 0.0 0.0 0.0 29.1751946751" Properties=species:S:1:pos:R:3:initial_magmoms:R:1 pbc="T T T"
Si       1.34557356       1.32926401      -1.38071609       0.00000000
Si      -1.33162280      -1.35956341      -1.37893932       0.00000000
Si      -1.35372833       1.38955330       1.32936775       0.00000000
Si       1.37020404      -1.34837218       1.36332767       0.00000000
Si      -2.62623799      -2.67465512       0.08988877       0.00000000
Si       2.70815062       2.69664662      -0.01730089       0.00000000
Si      -2.69400439       0.03611493       2.71448929       0.00000000
Si      -0.04142873       2.66833460      -2.75231201       0.00000000
Si       0.01084588       2.71888247       2.70880012       0.00000000
Si       2.73063082       0.00552231       2.71714423       0.00000000
