10
Lattice="16.290000149 0.0 0.0 0.0 16.290000149 0.0 0.0 0.0 29.1751946751" Properties=species:S:1:pos:R:3:initial_magmoms:R:1 pbc="T T T"
Si      -1.32145133       0.27049545       1.90846618       0.00000000
Si       2.21065076      -0.07211583       0.80806537       0.00000000
Si      -1.29862578      -0.13349655      -2.01553915       0.00000000
Si      -0.54586161       2.38839095       0.73646944       0.00000000
Si      -0.53129835      -1.99119188       1.69534139       0.00000000
H        2.05286582       0.72332488       2.08392581       0.00000000
H       -2.43035562       0.84154141      -1.73239388       0.00000000
H        0.12109986      -1.63673776      -2.76046939       0.00000000
H        0.64848862       2.74998009       1.63022235       0.00000000
H        0.75088756      -1.95030398       2.51533941       0.00000000
