10
Lattice="16.290000149 0.0 0.0 0.0 16.290000149 0.0 0.0 0.0 29.1751946751" Properties=species:S:1:pos:R:3:initial_magmoms:R:1 pbc="T T T"
Si       1.35820157      -1.40740714       1.31186263       0.00000000
Si      -1.46020499       1.28272348       1.34165050       0.00000000
Si       1.18955120       1.69409486      -1.18594249       0.00000000
Si      -1.10582385      -1.70481368      -1.25342471       0.00000000
Si       2.36396247      -2.64960110      -0.53072597       0.00000000
Si      -2.77621676      -2.48956814       0.19308144       0.00000000
Si       2.53130964       0.06118524       2.76142926       0.00000000
Si      -2.85831836       2.45467496      -0.12224407       0.00000000
Si      -0.12995999      -2.60653034       2.74580302       0.00000000
Si       0.30666577      -3.65573667      -1.25657563       0.00000000
