10
Lattice="16.290000149 0.0 0.0 0.0 16.290000149 0.0 0.0 0.0 29.1751946751" Properties=species:S:1:pos:R:3:initial_magmoms:R:1 pbc="T T T"
Si       1.36316350      -1.33929865       1.36417375       0.00000000
Si       1.35508366       1.37109673      -1.34593926       0.00000000
Si      -1.35482302       1.35348724       1.36513653       0.00000000
Si      -1.33551937      -1.40429575      -1.33823700       0.00000000
Si       2.70638804      -2.66968667      -0.02339851       0.00000000
Si      -2.76903939      -0.08496864      -2.62086609       0.00000000
Si       0.01197315      -2.73026918       2.69231614       0.00000000
Si      -2.72435591       2.70114266       0.02339851       0.00000000
Si       0.00917127       2.71557560      -2.71189270       0.00000000
Si       2.71321355       2.71888247       0.02129789       0.00000000
