10
Lattice="16.290000149 0.0 0.0 0.0 16.290000149 0.0 0.0 0.0 29.1751946751" Properties=species:S:1:pos:R:3:initial_magmoms:R:1 pbc="T T T"
Si       1.37013562      -1.34597755      -1.33905391       0.00000000
Si       1.37922544       1.33504696       1.34445132       0.00000000
Si      -1.35062020      -1.36441783       1.35574212       0.00000000
Si      -1.34664544       1.35827650      -1.36895848       0.00000000
Si       0.00076563       2.70145217       2.65578880       0.00000000
Si      -0.01583388      -2.69658146      -2.66328682       0.00000000
Si      -2.72165177      -0.00829161       2.68928192       0.00000000
Si       2.74046672       0.01198944      -2.67702834       0.00000000
Si       0.02085120      -2.70817994       2.71720258       0.00000000
Si      -2.69400764       0.00174303      -2.73135255       0.00000000
