10
Lattice="16.290000149 0.0 0.0 0.0 16.290000149 0.0 0.0 0.0 29.1751946751" Properties=species:S:1:pos:R:3:initial_magmoms:R:1 pbc="T T T"
Si       1.41221106       1.39132891      -1.25474343       0.00000000
Si       1.36685970      -1.34703640       1.37257621       0.00000000
Si      -1.27929313       1.34597755       1.45698005       0.00000000
Si      -1.39198214      -1.28585116      -1.43574634       0.00000000
Si      -2.69208705      -2.64013661       0.00017505       0.00000000
Si      -2.59648104       2.77982662       0.17980672       0.00000000
Si       0.13359918       2.76319453      -2.64359648       0.00000000
Si       2.74113299       0.07643268      -2.67359442       0.00000000
Si       2.71878311      -2.71723718       0.01543368       0.00000000
Si       0.02147837      -2.69500133       2.74153469       0.00000000
