10
Lattice="16.290000149 0.0 0.0 0.0 16.290000149 0.0 0.0 0.0 29.1751946751" Properties=species:S:1:pos:R:3:initial_magmoms:R:1 pbc="T T T"
Si       0.86294647      -1.42866559       1.59564975       0.00000000
Si      -2.23475996       0.50604885      -0.30922789       0.00000000
Si       0.57329398      -1.04769136      -1.99462053       0.00000000
Si       1.25890750       1.77782546      -0.82198193       0.00000000
H       -0.14822271      -1.48261807       2.72957286       0.00000000
Si       0.61387237       1.10289980      -2.96592112       0.00000000
Si       2.75853234      -0.10893123       2.01670616       0.00000000
Si       3.30289527       1.15160201       0.08892599       0.00000000
Si      -1.03534354      -2.74927962      -2.03794570       0.00000000
Si       1.15960366       1.42895556       3.09572156       0.00000000
