10
Lattice="16.290000149 0.0 0.0 0.0 16.290000149 0.0 0.0 0.0 29.1751946751" Properties=species:S:1:pos:R:3:initial_magmoms:R:1 pbc="T T T"
Si       1.34488612      -1.34698753      -1.36980457       0.00000000
Si      -1.35205372      -1.37611405       1.34305091       0.00000000
Si      -1.35672895       1.32805855      -1.38903102       0.00000000
Si       1.36625860       1.33768594       1.37444342       0.00000000
Si      -2.72513783      -0.01558953       2.66264497       0.00000000
Si      -0.01542663       2.68400558       2.70964621       0.00000000
Si       2.68229513      -2.72134226      -0.01776769       0.00000000
Si      -2.73527021       2.67571397      -0.06815325       0.00000000
Si      -0.01324377      -2.71342532      -2.70080612       0.00000000
Si       2.70883157       2.71070489       0.01056142       0.00000000
