10
Lattice="16.290000149 0.0 0.0 0.0 16.290000149 0.0 0.0 0.0 29.1751946751" Properties=species:S:1:pos:R:3:initial_magmoms:R:1 pbc="T T T"
Si      -1.32639697       1.35940051       1.36650777       0.00000000
Si       1.37821546      -1.33975477       1.35807614       0.00000000
Si       1.41086062       1.40401882      -1.25783600       0.00000000
Si      -1.41964093      -1.42905655      -1.23601296       0.00000000
Si       0.07835490      -2.66493325      -2.51563116       0.00000000
Si       2.66807396       0.00293220      -2.62309507       0.00000000
Si      -2.66955635      -0.05896980      -2.64922146       0.00000000
Si      -2.64414395       2.75002896       0.02529489       0.00000000
Si       0.05207913       2.72373689       2.67104742       0.00000000
Si       0.09547569       2.66717801      -2.73042478       0.00000000
