10
Lattice="16.290000149 0.0 0.0 0.0 16.290000149 0.0 0.0 0.0 29.1751946751" Properties=species:S:1:pos:R:3:initial_magmoms:R:1 pbc="T T T"
Si      -1.35820157       1.40740714      -1.31186263       0.00000000
Si       1.17310807       1.46859238       1.44956663       0.00000000
Si      -1.48816156      -1.19912320       1.43394040       0.00000000
Si       1.00576090      -1.24219396      -1.84258859       0.00000000
Si      -2.46402542      -0.29740653      -2.56528734       0.00000000
Si      -1.05153580      -2.24832953      -2.56843826       0.00000000
Si       2.40082022       0.49506939      -2.75565549       0.00000000
Si      -0.12870729      -2.53807976       2.81432389       0.00000000
Si       2.54787005       0.11715768       2.80961501       0.00000000
Si       2.47282202       2.95261140       0.17620155       0.00000000
