10
Lattice="16.290000149 0.0 0.0 0.0 16.290000149 0.0 0.0 0.0 29.1751946751" Properties=species:S:1:pos:R:3:initial_magmoms:R:1 pbc="T T T"
Si       1.35945427      -1.33895656       1.38038349       0.00000000
Si      -1.50618482      -1.38411244      -1.16894414       0.00000000
Si      -1.40026724       1.35062020       1.36772146       0.00000000
Si       1.48816156       1.19912320      -1.43394040       0.00000000
Si      -2.64625677       0.11696220      -2.55272159       0.00000000
Si       2.66126963       2.66771558       0.01562623       0.00000000
Si      -0.24429625      -2.81284320      -2.49562573       0.00000000
Si       0.12995999       2.60653034      -2.74580302       0.00000000
Si      -0.01473919      -2.69992091       2.74146759       0.00000000
Si       2.68010087       0.00200367       2.77455226       0.00000000
