10
Lattice="16.290000149 0.0 0.0 0.0 16.290000149 0.0 0.0 0.0 29.1751946751" Properties=species:S:1:pos:R:3:initial_magmoms:R:1 pbc="T T T"
H        1.31261563      -0.46204956       0.60366395       0.00000000
Si      -1.25897266       0.24547401       1.93799148       0.00000000
Si       0.27523584       2.03002724      -1.19717494       0.00000000
Si      -0.97176367      -1.99832690      -0.87370955       0.00000000
H        1.88665895      -0.58655404      -1.72346628       0.00000000
Si       3.07045326      -1.09794601      -0.92149852       0.00000000
H       -0.89428843      -2.80973181       1.70432735       0.00000000
Si      -1.92269243       2.75211408      -0.74551375       0.00000000
Si      -3.31569921      -0.46372743       1.04808969       0.00000000
H        1.08017362       0.16347015      -3.37504487       0.00000000
