10
Lattice="16.290000149 0.0 0.0 0.0 16.290000149 0.0 0.0 0.0 29.1751946751" Properties=species:S:1:pos:R:3:initial_magmoms:R:1 pbc="T T T"
Si       1.18379431      -0.51139197       0.80196775       0.00000000
H       -0.80648533       0.75002419      -1.65157860       0.00000000
H        0.64006669       1.66697201      -1.09943804       0.00000000
H       -0.57404332       0.12450447       2.32713023       0.00000000
Si      -1.88665895       0.58655404       1.72346628       0.00000000
Si      -1.65011186      -0.18642276      -2.46060674       0.00000000
Si       2.51731001      -1.58131918      -0.81880184       0.00000000
Si      -1.61142310       2.61658127       0.52629134       0.00000000
Si       0.48726648      -2.36928278       2.22312066       0.00000000
Si      -2.85842262      -1.41177286       0.84975672       0.00000000
