10
Lattice="16.290000149 0.0 0.0 0.0 16.290000149 0.0 0.0 0.0 29.1751946751" Properties=species:S:1:pos:R:3:initial_magmoms:R:1 pbc="T T T"
Si       1.25574724       1.35260677      -1.40793654       0.00000000
Si      -1.31051422       1.40239666       1.33572794       0.00000000
Si      -1.28226736      -1.46935801      -1.29715833       0.00000000
Si       1.22337901      -1.51013188       1.35720088       0.00000000
H       -1.92992519      -2.29900772      -0.22389044       0.00000000
H        2.83472881       1.09576315       0.11961830       0.00000000
Si      -2.60736113      -0.03836295       2.61077147       0.00000000
Si       2.46774280       2.77971422       0.04504650       0.00000000
Si      -0.21463704       2.63361410      -2.67154340       0.00000000
Si       2.66874837      -0.06014268      -2.66133208       0.00000000
