10
Lattice="16.290000149 0.0 0.0 0.0 16.290000149 0.0 0.0 0.0 29.1751946751" Properties=species:S:1:pos:R:3:initial_magmoms:R:1 pbc="T T T"
Si      -1.34938216      -1.34364808      -1.31288376       0.00000000
Si       1.39662316      -1.28298412       1.35845541       0.00000000
Si       1.38644191       1.33209847      -1.34156298       0.00000000
Si      -1.18291465       1.45257931       1.41240035       0.00000000
Si       2.27815652       0.60421240       2.42682187       0.00000000
Si       0.67621420       2.37891017       2.51793600       0.00000000
Si      -2.65862576       0.08273691      -2.61144250       0.00000000
Si       0.08788455      -2.67846698      -2.59487099       0.00000000
Si       0.02503773      -2.60560181       2.71609392       0.00000000
Si      -2.72241740      -2.59845050       0.11725511       0.00000000
