10
Lattice="16.290000149 0.0 0.0 0.0 16.290000149 0.0 0.0 0.0 29.1751946751" Properties=species:S:1:pos:R:3:initial_magmoms:R:1 pbc="T T T"
Si       1.38756592       1.27444816       1.37830651       0.00000000
Si      -1.63432684       1.18291465      -1.21337563       0.00000000
Si       1.25252182      -1.34243774      -1.48572607       0.00000000
Si      -1.33570834      -1.40698034       1.35257982       0.00000000
Si      -2.96880366      -0.79503346      -1.69867582       0.00000000
Si      -2.68237251      -2.62059187      -0.12977973       0.00000000
Si      -0.03057633       2.65680128       2.66263359       0.00000000
Si       2.60741000      -2.72784947      -0.08379962       0.00000000
Si       2.59110371      -0.12132792       2.82051224       0.00000000
Si      -2.76699900      -0.09901062       2.70457877       0.00000000
