10
Lattice="16.290000149 0.0 0.0 0.0 16.290000149 0.0 0.0 0.0 29.1751946751" Properties=species:S:1:pos:R:3:initial_magmoms:R:1 pbc="T T T"
Si      -1.35601219      -1.34047153       1.31493186       0.00000000
Si      -1.40714650       1.36513459      -1.25098858       0.00000000
Si       1.33683886      -1.15375555      -1.55836968       0.00000000
Si       1.42219846       1.46007271       1.22390525       0.00000000
Si       0.42344226       2.38655018      -2.19695343       0.00000000
Si       2.16386588       0.84216043      -2.65735959       0.00000000
Si       0.07750782      -2.65979864       2.59756094       0.00000000
Si      -2.69219945       0.10122606       2.60325011       0.00000000
Si       2.76359853      -2.52035624      -0.22309104       0.00000000
Si      -2.66118329      -2.63622701      -0.15942785       0.00000000
