10
Lattice="16.290000149 0.0 0.0 0.0 16.290000149 0.0 0.0 0.0 29.1751946751" Properties=species:S:1:pos:R:3:initial_magmoms:R:1 pbc="T T T"
Si      -0.48034323       2.02961999      -1.05815514       0.00000000
Si       1.59470956       0.81515161       1.55900570       0.00000000
Si       1.29424051      -1.50228010      -1.32376611       0.00000000
Si      -1.87009202      -0.89795368       1.27588961       0.00000000
H       -2.78818014      -0.72931960      -1.26278995       0.00000000
H        1.03842235       1.18491832      -2.76720886       0.00000000
H       -1.07430922       1.92899666      -2.46034417       0.00000000
Si      -2.19496349       2.46826082       0.46910796       0.00000000
Si       2.22089717      -2.54396045       0.51164539       0.00000000
Si       3.29427786      -0.78384223       1.57362248       0.00000000
