10
Lattice="16.290000149 0.0 0.0 0.0 16.290000149 0.0 0.0 0.0 29.1751946751" Properties=species:S:1:pos:R:3:initial_magmoms:R:1 pbc="T T T"
Si      -1.42134324       1.21971376      -1.37826537       0.00000000
Si      -1.31857777      -1.48491496       1.26795396       0.00000000
Si       1.49762116      -1.33201702      -1.25607966       0.00000000
Si       0.68331664       1.86245201       1.30427708       0.00000000
Si       0.24663060      -2.55881693       2.63297379       0.00000000
Si       0.02899620       2.61384455      -2.59536697       0.00000000
Si      -2.75789703       2.53070039       0.03982414       0.00000000
Si       0.05792724      -2.73795806      -2.57185176       0.00000000
Si      -0.98684821       3.48649986       1.23921639       0.00000000
Si      -2.71479368      -0.18098190      -2.70299426       0.00000000
