10
Lattice="16.290000149 0.0 0.0 0.0 16.290000149 0.0 0.0 0.0 29.1751946751" Properties=species:S:1:pos:R:3:initial_magmoms:R:1 pbc="T T T"
H        0.84362653       0.93644695       0.80902815       0.00000000
Si       1.42941493      -1.44497188      -1.12018160       0.00000000
Si      -1.29609757       1.29044494      -1.42879681       0.00000000
Si      -1.83413999      -0.82420885       1.16140615       0.00000000
H        1.65011186       0.18642276       2.46060674       0.00000000
H        2.29017854       1.85339477       1.36116871       0.00000000
Si      -2.37718343       2.71111214       0.06882428       0.00000000
Si       2.77698891      -0.05046642      -2.46410777       0.00000000
Si       0.06727770      -2.75006154      -2.51110901       0.00000000
Si      -1.20831076      -1.22535010       3.31036346       0.00000000
