10
Lattice="16.290000149 0.0 0.0 0.0 16.290000149 0.0 0.0 0.0 29.1751946751" Properties=species:S:1:pos:R:3:initial_magmoms:R:1 pbc="T T T"
Si      -0.96690925       1.44257725       1.52630031       0.00000000
Si       1.56905281      -1.28251171       1.12292407       0.00000000
Si       1.62168580       1.02530890      -1.39212359       0.00000000
Si      -1.89411977      -1.50607567      -0.31485870       0.00000000
H       -0.37535418      -2.35077734      -2.02391243       0.00000000
H        0.76869253      -0.70625296      -3.14514434       0.00000000
H       -2.48808575      -1.60669900      -1.71704773       0.00000000
Si       0.18093303      -2.72054405       2.30230214       0.00000000
Si      -2.66163941       2.37506573       0.22464900       0.00000000
H       -2.13620546       2.63935469      -1.16196048       0.00000000
