10
Lattice="16.290000149 0.0 0.0 0.0 16.290000149 0.0 0.0 0.0 29.1751946751" Properties=species:S:1:pos:R:3:initial_magmoms:R:1 pbc="T T T"
Si      -1.34553772      -1.33087672       1.37047559       0.00000000
Si       1.37308411      -1.36052452      -1.31959406       0.00000000
Si       1.36213723       1.30508965       1.39092741       0.00000000
Si      -1.35840682       1.33260346      -1.37797362       0.00000000
Si      -0.06727770       2.75006154       2.51110901       0.00000000
Si      -0.00164529      -2.72334593      -2.65290045       0.00000000
Si       2.72513783       0.01558953      -2.66264497       0.00000000
Si      -2.78295105       0.03865617       2.60414870       0.00000000
Si       2.70971120       2.69959511       0.04700124       0.00000000
Si      -2.72745102      -2.68226255       0.02987540       0.00000000
