10
Lattice="16.290000149 0.0 0.0 0.0 16.290000149 0.0 0.0 0.0 29.1751946751" Properties=species:S:1:pos:R:3:initial_magmoms:R:1 pbc="T T T"
Si      -1.38282553       1.35987781      -1.32038179       0.00000000
Si      -1.37464795      -1.35531172       1.33438588       0.00000000
Si       1.34964280       1.37129058       1.34882760       0.00000000
Si       1.35203743      -1.37653759      -1.34701874       0.00000000
Si      -0.00472410      -2.69682581       2.68834831       0.00000000
Si      -0.03300354       2.73352718      -2.65608055       0.00000000
Si      -2.73862596      -0.01198944      -2.65788941       0.00000000
Si       2.72368802       0.02436984       2.68289255       0.00000000
Si      -2.69392619       0.01444923       2.71711506       0.00000000
Si       2.73155610      -0.03240081      -2.68169637       0.00000000
