10
Lattice="16.290000149 0.0 0.0 0.0 16.290000149 0.0 0.0 0.0 29.1751946751" Properties=species:S:1:pos:R:3:initial_magmoms:R:1 pbc="T T T"
Si       1.34538134       1.34796493      -1.36895848       0.00000000
Si       1.35131090      -1.35910729       1.35944737       0.00000000
Si      -1.32954560       1.34938216       1.39165679       0.00000000
Si      -1.36457422      -1.32932917      -1.37943238       0.00000000
Si       2.67699111       2.69306282       0.04574671       0.00000000
Si      -2.70485027      -2.68276754       0.00568916       0.00000000
Si      -2.69802476       2.70580160       0.05038556       0.00000000
Si       2.69212452       0.00314397       2.72405875       0.00000000
Si       2.69730474      -0.02223585      -2.72610102       0.00000000
Si      -2.67663599      -0.00532683       2.74891602       0.00000000
