10
Lattice="16.290000149 0.0 0.0 0.0 16.290000149 0.0 0.0 0.0 29.1751946751" Properties=species:S:1:pos:R:3:initial_magmoms:R:1 pbc="T T T"
Si      -1.36222921      -1.39484755      -1.31913892       0.00000000
Si       1.29464939      -1.35221662       1.43197690       0.00000000
Si      -1.34951216       1.32761872       1.40647778       0.00000000
Si       1.37419346       1.36096435      -1.36108410       0.00000000
Si      -2.66101877      -2.68618519       0.15226534       0.00000000
Si      -2.81292302      -0.01078398      -2.54592668       0.00000000
Si       0.06906146      -2.70281728      -2.67113787       0.00000000
Si       2.69484006       2.70192458       0.03308467       0.00000000
Si       2.64978192      -2.74789171       0.14269588       0.00000000
Si      -2.68014323       2.73544941       0.09508196       0.00000000
