10
Lattice="16.290000149 0.0 0.0 0.0 16.290000149 0.0 0.0 0.0 29.1751946751" Properties=species:S:1:pos:R:3:initial_magmoms:R:1 pbc="T T T"
H       -1.43971021       0.29177019       0.44302533       0.00000000
Si       0.44313687      -2.13568418       0.88870561       0.00000000
Si      -0.35787501       0.23236056      -2.36135273       0.00000000
Si       1.22717458       1.58741164       1.41059149       0.00000000
H        0.18836127       2.69847110      -0.98606323       0.00000000
H        1.53272449      -1.38279295      -2.09722969       0.00000000
H        0.37072782      -3.20642589      -0.17691838       0.00000000
Si      -0.78506398       2.95329558       1.49143595       0.00000000
Si       3.41721849       0.16405659       0.37163363       0.00000000
Si      -2.66506031       2.24499008       0.21796788       0.00000000
