10
Lattice="16.290000149 0.0 0.0 0.0 16.290000149 0.0 0.0 0.0 29.1751946751" Properties=species:S:1:pos:R:3:initial_magmoms:R:1 pbc="T T T"
Si      -1.47479073       1.20953251       1.33155589       0.00000000
Si       1.19738832       1.51980814      -1.31092902       0.00000000
Si      -0.22169876      -1.84862180      -1.44128379       0.00000000
Si       1.42497591      -1.18939807       1.45441263       0.00000000
H       -2.94722755      -1.25390647      -1.42252414       0.00000000
Si       2.09426685      -2.02903355      -2.03038932       0.00000000
Si      -2.62289365      -0.42881796       2.51811105       0.00000000
Si       2.58464473       0.17901081      -2.63008545       0.00000000
Si       3.14764342      -1.94838176       0.08014426       0.00000000
Si      -0.01679662       2.59253723       2.68554749       0.00000000
