10
Lattice="16.290000149 0.0 0.0 0.0 16.290000149 0.0 0.0 0.0 29.1751946751" Properties=species:S:1:pos:R:3:initial_magmoms:R:1 pbc="T T T"
Si      -1.52318017      -1.32809113      -1.18483383       0.00000000
Si      -1.41823999       1.17299404       1.46844590       0.00000000
Si       1.37697742      -1.32056515       1.43967916       0.00000000
Si       0.76502728       1.49977796      -1.72326205       0.00000000
H        1.23214303      -2.08709111      -2.23659960       0.00000000
Si      -1.30996036       2.22876198      -2.57176424       0.00000000
Si      -0.13592376      -2.66888846      -2.50399026       0.00000000
Si      -2.57178377       0.22097385      -2.65412581       0.00000000
Si       0.02744865       2.61388202       2.74427716       0.00000000
H       -0.62131690       3.77506092       0.02217315       0.00000000
