10
Lattice="16.290000149 0.0 0.0 0.0 16.290000149 0.0 0.0 0.0 29.1751946751" Properties=species:S:1:pos:R:3:initial_magmoms:R:1 pbc="T T T"
Si      -1.75163114      -0.31586310       1.48703050       0.00000000
Si       0.11684817      -2.30560680      -0.23424764       0.00000000
Si      -0.98591968       0.86082062      -1.98461344       0.00000000
Si       1.83205487       1.18302705       1.01681388       0.00000000
H       -0.41643756       2.65611548       1.49304059       0.00000000
Si      -2.50875776       2.17823203      -0.78907232       0.00000000
Si       1.71870905      -2.23596705      -2.02116996       0.00000000
Si      -1.06761403       3.50488964       0.42321537       0.00000000
Si       0.40571874      -3.18854110       2.00666989       0.00000000
Si      -1.10659600       0.35906255       3.63096968       0.00000000
