10
Lattice="16.290000149 0.0 0.0 0.0 16.290000149 0.0 0.0 0.0 29.1751946751" Properties=species:S:1:pos:R:3:initial_magmoms:R:1 pbc="T T T"
Si      -1.34647277       1.36056199      -1.35536284       0.00000000
Si       1.35682669       1.36291264       1.35014048       0.00000000
Si      -1.37497049      -1.34830702       1.35086986       0.00000000
Si       1.31686732      -1.37109673      -1.38897267       0.00000000
Si       0.01396053      -2.69848739       2.68020843       0.00000000
Si      -2.66089529      -0.02318067      -2.71927402       0.00000000
Si       2.70361874      -0.01154961      -2.69310387       0.00000000
Si      -0.02718801       2.71841006       2.68411791       0.00000000
Si      -2.68966939      -2.71477739      -0.04306259       0.00000000
Si       2.70005123      -2.71640639      -0.05298215       0.00000000
