10
Lattice="16.28999089631971 0.0 0.0 0.0 16.28999089631971 0.0 0.0 0.0 34.48637585096406" Properties=species:S:1:pos:R:3:initial_magmoms:R:1 pbc="T T T"
Si       0.64136988      -2.19930380      -0.48353375       0.00000000
Si       1.99000269       1.43233083      -0.08911284       0.00000000
Si      -1.39676976      -0.19872171      -2.14532967       0.00000000
Si      -1.34504901      -0.03839553       2.21202636       0.00000000
Si       1.47113361       2.18448900      -2.33300463       0.00000000
Si      -2.57315211      -2.02484912       1.67086584       0.00000000
Si      -1.10830644      -3.51273392       0.51553712       0.00000000
Si      -3.49195698       1.08818829      -0.79763583       0.00000000
Si       2.37379509      -2.81143313       0.93123613       0.00000000
Si       0.19670175       0.67932558      -3.76001717       0.00000000
