10
Lattice="16.28999089631971 0.0 0.0 0.0 16.28999089631971 0.0 0.0 0.0 34.48637585096406" Properties=species:S:1:pos:R:3:initial_magmoms:R:1 pbc="T T T"
Si       2.08647207      -1.03936064       0.00358659       0.00000000
Si       0.08115678       0.68727510      -2.25582408       0.00000000
Si      -2.02209399      -1.19932844       0.44511590       0.00000000
Si       0.59629545       1.62456912       1.66545148       0.00000000
Si       1.09718037       2.81725776      -2.00190075       0.00000000
Si      -2.79617850      -0.18534762       2.47029497       0.00000000
Si      -3.51381816      -0.29488158      -1.29027399       0.00000000
Si       3.59569170       0.48120660      -1.07131986       0.00000000
Si      -2.20314105       0.80580114      -3.00421334       0.00000000
Si       2.40046182      -2.12025916       2.09408288       0.00000000
