10
Lattice="16.28999089631971 0.0 0.0 0.0 16.28999089631971 0.0 0.0 0.0 34.48637585096406" Properties=species:S:1:pos:R:3:initial_magmoms:R:1 pbc="T T T"
Si      -1.35123921       1.31054679       1.51476318       0.00000000
Si       1.97602587       0.66497409      -1.26702123       0.00000000
Si       1.33263603      -1.42615692       1.51231119       0.00000000
Si      -2.01510558      -0.96643683      -1.16852429       0.00000000
Si       2.77293267       2.62153341       0.08215004       0.00000000
Si      -2.71819501       2.72386719       0.12025751       0.00000000
Si       2.73816981      -2.76239141       0.11155314       0.00000000
Si      -2.74145387      -2.79603841       0.22761021       0.00000000
Si      -0.00811242       2.64813498       2.89739863       0.00000000
Si       2.70669753      -0.06649578       2.89091518       0.00000000
