10
Lattice="16.28999089631971 0.0 0.0 0.0 16.28999089631971 0.0 0.0 0.0 34.48637585096406" Properties=species:S:1:pos:R:3:initial_magmoms:R:1 pbc="T T T"
Si       0.61162434      -1.89685647      -1.30041299       0.00000000
Si      -1.11803157       1.31093775       1.67714237       0.00000000
Si       2.17947168       1.27324269       0.28247806       0.00000000
Si      -2.03054850       0.84755241      -1.38742216       0.00000000
Si       1.13049342      -2.64901464       0.94347880       0.00000000
Si       0.61211304       3.08416941       0.35803775       0.00000000
Si       2.09481255      -0.74174886      -2.76991277       0.00000000
Si      -0.72358551       1.95709689      -2.98569414       0.00000000
Si       3.72707055       0.35365590      -1.44725606       0.00000000
Si      -3.53370825       0.90955215       1.92147848       0.00000000
