10
Lattice="16.28999089631971 0.0 0.0 0.0 16.28999089631971 0.0 0.0 0.0 34.48637585096406" Properties=species:S:1:pos:R:3:initial_magmoms:R:1 pbc="T T T"
Si      -1.26025956       1.40729310      -1.33524425       0.00000000
Si      -1.30696299      -1.10954448       1.59827198       0.00000000
Si       1.48849875      -1.31699763      -1.30575838       0.00000000
Si       0.75282606       1.91980908       1.18991858       0.00000000
Si       0.72358551      -1.95709689       2.98569414       0.00000000
Si      -2.59434540       0.04994514      -2.68973190       0.00000000
Si      -2.64295476      -2.63987595       0.16719004       0.00000000
Si       1.33569855       1.12707252       3.34373190       0.00000000
Si       0.12271257      -2.66890473      -2.68276565       0.00000000
Si      -2.63358801       2.78042607       0.06417918       0.00000000
