10
Lattice="16.28999089631971 0.0 0.0 0.0 16.28999089631971 0.0 0.0 0.0 34.48637585096406" Properties=species:S:1:pos:R:3:initial_magmoms:R:1 pbc="T T T"
Si       1.11803157      -1.31093775      -1.67714237       0.00000000
Si      -2.41567668      -0.40138560       0.24433611       0.00000000
Si       0.66427362      -0.37569627       2.39739073       0.00000000
Si       1.73014461       1.77323166      -1.31910461       0.00000000
Si      -0.91251693      -0.46338534      -3.06456453       0.00000000
Si      -2.15373348       1.66952952      -1.98117443       0.00000000
Si      -2.41583958       0.93037077       2.22595886       0.00000000
Si       3.29750325      -0.03769506      -1.39466431       0.00000000
Si      -1.45841112      -0.78996726       3.51226691       0.00000000
Si       2.84240952      -1.21323033       2.42277272       0.00000000
