10
Lattice="16.28999089631971 0.0 0.0 0.0 16.28999089631971 0.0 0.0 0.0 34.48637585096406" Properties=species:S:1:pos:R:3:initial_magmoms:R:1 pbc="T T T"
Si       1.15514019      -1.63844820       1.30465481       0.00000000
Si      -1.11811302      -0.86560173      -1.94627420       0.00000000
Si       2.21853510       0.54810963      -1.06931965       0.00000000
Si      -2.16818271      -0.13962159       1.32376028       0.00000000
Si       0.14072931       2.81720889      -0.34069110       0.00000000
Si       0.63946395      -2.86203897      -1.58351180       0.00000000
Si      -1.22026761      -2.13760638       2.31369225       0.00000000
Si      -2.27662524       2.78045865      -0.43677019       0.00000000
Si      -2.30234715       2.14125534       1.81305325       0.00000000
Si      -2.72474685       1.15261524      -2.14326048       0.00000000
