10
Lattice="16.28999089631971 0.0 0.0 0.0 16.28999089631971 0.0 0.0 0.0 34.48637585096406" Properties=species:S:1:pos:R:3:initial_magmoms:R:1 pbc="T T T"
Si      -0.91180017      -1.88112033       1.05007866       0.00000000
Si       1.54096884      -0.07167600      -1.77607594       0.00000000
Si       1.85036481       0.93644694       1.23899858       0.00000000
Si      -1.65851748       1.86496065      -0.06488788       0.00000000
Si       0.39240981       2.23940259       2.50718403       0.00000000
Si      -2.33458506      -0.51562737       2.49078230       0.00000000
Si      -1.40227578       2.22847200      -2.33903186       0.00000000
Si       0.72540999       1.61616348      -3.24247195       0.00000000
Si      -3.55670973       0.98433954       1.12439339       0.00000000
Si      -0.82904697       3.72307950       1.09919418       0.00000000
