10
Lattice="16.28999089631971 0.0 0.0 0.0 16.28999089631971 0.0 0.0 0.0 34.48637585096406" Properties=species:S:1:pos:R:3:initial_magmoms:R:1 pbc="T T T"
Si       1.34612415       1.33087671       1.35731554       0.00000000
Si       1.45795500      -1.30295565      -1.26818545       0.00000000
Si      -1.37000529      -1.37811771       1.35179772       0.00000000
Si      -1.22145678       1.48367691      -1.40798985       0.00000000
Si      -2.05092729      -0.37444194      -2.57207191       0.00000000
Si      -0.39240981      -2.23940259      -2.50718403       0.00000000
Si      -0.00931788       2.69635338       2.71325162       0.00000000
Si       2.70314631      -0.01842399       2.71404481       0.00000000
Si       2.72155401       2.69912268      -0.03530027       0.00000000
Si      -2.74061331       2.69734707      -0.02746841       0.00000000
