10
Lattice="16.28999089631971 0.0 0.0 0.0 16.28999089631971 0.0 0.0 0.0 34.48637585096406" Properties=species:S:1:pos:R:3:initial_magmoms:R:1 pbc="T T T"
Si       0.25624170       0.36351135      -2.27414398       0.00000000
Si       0.82947051       1.85811885       1.16408206       0.00000000
Si      -1.89819225      -0.88062111       1.18928127       0.00000000
Si       1.65851748      -1.86496065       0.06488788       0.00000000
Si       2.05092729       0.37444194       2.57207191       0.00000000
Si      -1.17465561      -1.31704650      -3.06519291       0.00000000
Si      -0.67606758      -2.38058802       2.55567018       0.00000000
Si       3.50888229      -0.92851371       1.30388646       0.00000000
Si       0.74671731      -3.74608098       1.11496654       0.00000000
Si       2.38392747      -0.24879717      -3.17758407       0.00000000
