10
Lattice="16.28999089631971 0.0 0.0 0.0 16.28999089631971 0.0 0.0 0.0 34.48637585096406" Properties=species:S:1:pos:R:3:initial_magmoms:R:1 pbc="T T T"
Si       1.12625802       1.66213386      -1.22626724       0.00000000
Si      -1.29168297       1.11855285       1.67745275       0.00000000
Si      -1.83370014      -1.25051814      -1.09066673       0.00000000
Si       1.55271393      -2.11113513       0.03507266       0.00000000
Si       2.29241025       0.09925497      -2.49871176       0.00000000
Si      -1.65151278      -0.91654056       2.89661579       0.00000000
Si      -0.46037169      -2.62365111      -2.49009016       0.00000000
Si       2.42461989       2.80616427       0.47411896       0.00000000
Si      -0.44709534       2.83436226      -2.47653701       0.00000000
Si      -1.74829167      -3.00757383       1.52681617       0.00000000
