10
Lattice="16.28999089631971 0.0 0.0 0.0 16.28999089631971 0.0 0.0 0.0 34.48637585096406" Properties=species:S:1:pos:R:3:initial_magmoms:R:1 pbc="T T T"
Si       1.73242521      -0.61212933       1.41476987       0.00000000
Si      -0.64136988       2.19930380       0.48353375       0.00000000
Si      -1.74967632      -1.31343012       0.99907087       0.00000000
Si       1.11928590      -1.21513626      -1.90578717       0.00000000
Si      -2.03813964       2.00058209      -1.66179592       0.00000000
Si       2.28535668      -2.83186989      -0.09169932       0.00000000
Si       0.95060295      -1.40188482       3.47674592       0.00000000
Si      -3.21452199       0.17445468       2.15439959       0.00000000
Si       1.34863281       3.63163463       0.39442090       0.00000000
Si      -2.59701696      -2.90274768      -0.70245338       0.00000000
