10
Lattice="16.28999089631971 0.0 0.0 0.0 16.28999089631971 0.0 0.0 0.0 34.48637585096406" Properties=species:S:1:pos:R:3:initial_magmoms:R:1 pbc="T T T"
Si       2.29705290      -0.08674425       0.69676313       0.00000000
Si      -1.47808944      -1.35286821       1.33693408       0.00000000
Si      -0.59196231       2.17931597      -0.93906454       0.00000000
Si       0.70183836      -1.32383943      -1.93627314       0.00000000
Si       2.77619067      -1.78250067      -0.88381733       0.00000000
Si       2.66708025       2.17247417       0.32496530       0.00000000
Si      -2.51056593      -2.41189740      -0.51574404       0.00000000
Si       1.70338014       2.54168702      -1.73956274       0.00000000
Si      -1.22966694      -2.53446336      -2.51685160       0.00000000
Si      -0.98776044       3.58475201       1.00369204       0.00000000
