10
Lattice="16.28999089631971 0.0 0.0 0.0 16.28999089631971 0.0 0.0 0.0 34.48637585096406" Properties=species:S:1:pos:R:3:initial_magmoms:R:1 pbc="T T T"
Si       2.30578434      -0.46030653      -0.09842417       0.00000000
Si      -0.21580992       0.45621774       2.30355325       0.00000000
Si      -0.75862530       1.87152552      -1.28717021       0.00000000
Si      -1.69466499      -1.68640596      -0.30116969       0.00000000
Si      -2.73986397       2.40696153      -0.05031565       0.00000000
Si      -1.79110179       0.81249633      -3.13984833       0.00000000
Si      -2.50999578       0.24423597       2.71973507       0.00000000
Si       3.30760305       1.11835737       1.45849862       0.00000000
Si      -3.54721266      -0.98332956       0.97668920       0.00000000
Si      -2.48683140      -1.39999518      -2.52354196       0.00000000
