10
Lattice="16.28999089631971 0.0 0.0 0.0 16.28999089631971 0.0 0.0 0.0 34.48637585096406" Properties=species:S:1:pos:R:3:initial_magmoms:R:1 pbc="T T T"
Si       1.35723393      -1.35629286      -1.35679824       0.00000000
Si       1.35715248       1.35665418       1.35755694       0.00000000
Si      -1.35669636      -1.35860604       1.35690170       0.00000000
Si      -1.35754344       1.35745565      -1.35724657       0.00000000
Si       2.71495656      -0.00065944      -2.71204460       0.00000000
Si      -2.71485882       0.00030138      -2.71401032       0.00000000
Si       0.00164529       2.71442242      -2.71452762       0.00000000
Si       0.00236205      -2.71338018      -2.71576913       0.00000000
Si      -2.71489140      -2.71450419       0.00000000       0.00000000
Si       0.00022806      -2.71575852       2.71401032       0.00000000
