10
Lattice="16.28999089631971 0.0 0.0 0.0 16.28999089631971 0.0 0.0 0.0 34.48637585096406" Properties=species:S:1:pos:R:3:initial_magmoms:R:1 pbc="T T T"
Si       1.60909362       1.14483562       1.34014131       0.00000000
Si      -1.31409801      -1.45170797       1.41856338       0.00000000
Si       1.24558227      -1.43893661      -1.52895433       0.00000000
Si      -1.45974690       1.26678094      -1.50191699       0.00000000
Si      -2.61245988      -2.59573838      -0.28182282       0.00000000
Si       2.59328655       2.71482510      -0.07273181       0.00000000
Si       2.50072677      -2.86952441      -0.17722558       0.00000000
Si       2.61299745      -0.09600674      -2.89630541       0.00000000
Si      -2.87805204       2.64205767       0.04786712       0.00000000
Si      -0.10147041       2.62141824      -2.89558119       0.00000000
