10
Lattice="16.28999089631971 0.0 0.0 0.0 16.28999089631971 0.0 0.0 0.0 34.48637585096406" Properties=species:S:1:pos:R:3:initial_magmoms:R:1 pbc="T T T"
Si      -0.98419293      -1.56998947       1.41287312       0.00000000
Si      -1.35487188       1.26301257      -1.45256696       0.00000000
Si       0.65894679       1.83400965       1.50139970       0.00000000
Si       1.38140829      -1.45064568      -1.43828960       0.00000000
Si       2.64735306       2.56264506      -0.04310799       0.00000000
Si       1.21077054      -2.40384037       2.53999197       0.00000000
Si      -2.71371852       2.58750360       0.07811168       0.00000000
Si      -2.59328655      -2.71482510       0.07273181       0.00000000
Si       0.34612992       0.80837496       3.67866377       0.00000000
Si       0.02199150       2.61708624      -2.82215966       0.00000000
