10
Lattice="16.28999089631971 0.0 0.0 0.0 16.28999089631971 0.0 0.0 0.0 34.48637585096406" Properties=species:S:1:pos:R:3:initial_magmoms:R:1 pbc="T T T"
Si      -1.34312679      -1.33758819      -1.38263545       0.00000000
Si      -1.35438318       1.35773892       1.35645338       0.00000000
Si       1.35821133      -1.35449721       1.35641889       0.00000000
Si       1.35826020       1.33889139      -1.37454494       0.00000000
Si       0.00115659      -2.71378368       2.71345854       0.00000000
Si      -2.71428053       0.00120546       2.71338957       0.00000000
Si       2.71480995      -2.71463076      -0.00648344       0.00000000
Si       2.71608057       0.00107514       2.71369995       0.00000000
Si       0.00071676       2.71656927       2.71352751       0.00000000
Si      -2.71600401      -2.71419093      -0.00637998       0.00000000
