10
Lattice="16.28999089631971 0.0 0.0 0.0 16.28999089631971 0.0 0.0 0.0 34.48637585096406" Properties=species:S:1:pos:R:3:initial_magmoms:R:1 pbc="T T T"
Si       1.35610992      -1.35860229      -1.35993651       0.00000000
Si      -1.35936792       1.35799956      -1.36003996       0.00000000
Si       1.34965908       1.37119446       1.36969616       0.00000000
Si      -1.37686338      -1.35407367       1.36959270       0.00000000
Si       2.62536156      -0.05444118       2.77905166       0.00000000
Si       2.71489140      -2.71138905      -0.00500053       0.00000000
Si      -2.71674846      -2.71049310      -0.00068973       0.00000000
Si      -2.71463076       2.71595025       0.00100011       0.00000000
Si      -0.00140094      -2.71319724      -2.71787280       0.00000000
Si       2.71370223       0.00127062      -2.71763139       0.00000000
