10
Lattice="16.28999089631971 0.0 0.0 0.0 16.28999089631971 0.0 0.0 0.0 34.48637585096406" Properties=species:S:1:pos:R:3:initial_magmoms:R:1 pbc="T T T"
Si      -0.73785555       1.98456183       0.97344748       0.00000000
Si      -0.72822816      -1.93015323       1.09604661       0.00000000
Si      -1.33174008      -0.76216023      -2.18298881       0.00000000
Si       2.63645505       0.61691859      -0.03200337       0.00000000
Si       0.68732397      -2.04415065      -2.50291910       0.00000000
Si       0.53603874      -3.28302470      -0.44956465       0.00000000
Si       2.43817317       0.70455879       2.41101286       0.00000000
Si       0.31553730       3.54519270      -0.49374172       0.00000000
Si       2.69242749      -0.63402309      -2.29582830       0.00000000
Si       0.60273000       2.16295362       2.88699408       0.00000000
