10
Lattice="16.28999089631971 0.0 0.0 0.0 16.28999089631971 0.0 0.0 0.0 34.48637585096406" Properties=species:S:1:pos:R:3:initial_magmoms:R:1 pbc="T T T"
Si      -0.28689948       0.05041755       2.28527546       0.00000000
Si       0.54377649      -2.24034741      -0.38786849       0.00000000
Si       1.89892530       1.31258304      -0.47225669       0.00000000
Si      -1.95473484       0.09570375      -1.31844937       0.00000000
Si      -2.45561976      -1.09698489       2.34890286       0.00000000
Si       1.98105948      -1.09169064       2.77439600       0.00000000
Si       2.47388085       0.55133505      -2.60841298       0.00000000
Si       2.40816699      -2.59300962       0.89912929       0.00000000
Si      -1.23295752       1.13428899      -3.27306927       0.00000000
Si       0.53186850      -2.47267539      -2.74577229       0.00000000
