10
Lattice="16.28999089631971 0.0 0.0 0.0 16.28999089631971 0.0 0.0 0.0 34.48637585096406" Properties=species:S:1:pos:R:3:initial_magmoms:R:1 pbc="T T T"
Si       0.28689948      -0.05041755      -2.28527546       0.00000000
Si      -0.58964913       2.26274616       0.57781955       0.00000000
Si      -2.16872028      -1.14740244       0.06362740       0.00000000
Si       2.26795896      -1.14210819       0.48912054       0.00000000
Si      -1.65304404       0.07618833       2.95179402       0.00000000
Si       1.39067730       2.57383629       1.90364901       0.00000000
Si       0.83067597      -2.29076496      -2.67314395       0.00000000
Si      -2.80818423       1.71463653       1.64713920       0.00000000
Si       2.18582478       1.26216549      -2.75753215       0.00000000
Si       1.68717159      -2.17158732       2.53512939       0.00000000
