10
Lattice="16.28999089631971 0.0 0.0 0.0 16.28999089631971 0.0 0.0 0.0 34.48637585096406" Properties=species:S:1:pos:R:3:initial_magmoms:R:1 pbc="T T T"
Si      -1.35610992      -1.35609363      -1.35797078       0.00000000
Si       1.35741312      -1.35790182       1.35731554       0.00000000
Si      -1.35814617       1.35798327       1.35731554       0.00000000
Si       1.35700587       1.35925389      -1.35783284       0.00000000
Si      -0.00001629       2.70855459      -2.71456211       0.00000000
Si       2.71049310       0.00112401      -2.71745896       0.00000000
Si       2.71484253       2.71427238       0.00020692       0.00000000
Si      -0.00151497      -2.71661814      -2.71297573       0.00000000
Si       2.71437012      -2.71533123      -0.00010346       0.00000000
Si       2.71510317      -0.00188964       2.71466556       0.00000000
