10
Lattice="16.28999089631971 0.0 0.0 0.0 16.28999089631971 0.0 0.0 0.0 34.48637585096406" Properties=species:S:1:pos:R:3:initial_magmoms:R:1 pbc="T T T"
Si      -1.35726651       1.35682668      -1.35693619       0.00000000
Si      -1.35698958      -1.35785295       1.35769489       0.00000000
Si       1.35814617      -1.35798327      -1.35731554       0.00000000
Si       1.35772263       1.35866745       1.35755694       0.00000000
Si       0.00055386       2.71366965       2.71383789       0.00000000
Si      -2.71516833       0.00042354      -2.71376892       0.00000000
Si       0.00203625      -2.71407690      -2.71528632       0.00000000
Si      -2.71456560       2.71492398      -0.00017243       0.00000000
Si       2.71533123       2.71445157      -0.00003449       0.00000000
Si       2.71515204       0.00127062      -2.71514837       0.00000000
