10
Lattice="16.28999089631971 0.0 0.0 0.0 16.28999089631971 0.0 0.0 0.0 34.48637585096406" Properties=species:S:1:pos:R:3:initial_magmoms:R:1 pbc="T T T"
Si       1.35066906       1.34901792       1.36248160       0.00000000
Si      -1.36505313      -1.36199061       1.35965372       0.00000000
Si       1.37274201      -1.30737024      -1.41157643       0.00000000
Si      -1.33270119       1.36900413      -1.42122573       0.00000000
Si      -0.32009850      -2.11139577      -2.78079810       0.00000000
Si      -2.10575943      -0.34705845      -2.90322480       0.00000000
Si       2.57437386       0.18977591      -2.77772881       0.00000000
Si       2.71055826       2.71129850      -0.00591442       0.00000000
Si      -0.00376299       2.70761696       2.72096968       0.00000000
Si       2.70954828      -0.00746491       2.72345270       0.00000000
