10
Lattice="16.28999089631971 0.0 0.0 0.0 16.28999089631971 0.0 0.0 0.0 34.48637585096406" Properties=species:S:1:pos:R:3:initial_magmoms:R:1 pbc="T T T"
Si       1.25514450      -1.43058780       1.35172874       0.00000000
Si       1.36741518       1.34292987      -1.36735108       0.00000000
Si      -1.34620560      -1.37339361      -1.36983410       0.00000000
Si      -1.24558227       1.43893661       1.52895433       0.00000000
Si       2.67924888      -0.17868501       2.70249187       0.00000000
Si      -2.70532917       2.70571754       0.02703733       0.00000000
Si      -2.69188992      -2.71968066      -0.02531301       0.00000000
Si       0.01071882       2.69901909      -2.72628748       0.00000000
Si      -2.70313002      -0.01624113      -2.72694272       0.00000000
Si       2.72911257       2.70311603       0.01793293       0.00000000
