10
Lattice="16.28999089631971 0.0 0.0 0.0 16.28999089631971 0.0 0.0 0.0 34.48637585096406" Properties=species:S:1:pos:R:3:initial_magmoms:R:1 pbc="T T T"
Si       0.39864888       2.29108166      -0.32889675       0.00000000
Si       2.15469459      -0.35202690       0.91130299       0.00000000
Si      -1.99668159      -0.17682795       1.28482514       0.00000000
Si      -0.47350143      -1.21665123      -1.99531385       0.00000000
Si      -1.80522522       2.79448827      -1.11653153       0.00000000
Si       1.93736970      -2.51615340       1.72659586       0.00000000
Si       2.24723808       1.37575566       2.58103078       0.00000000
Si       2.22382935       2.41527662      -1.85029856       0.00000000
Si      -3.28921164       1.07158878      -1.82960672       0.00000000
Si      -0.33658398      -3.52442295      -1.72976861       0.00000000
