10
Lattice="16.28999089631971 0.0 0.0 0.0 16.28999089631971 0.0 0.0 0.0 34.48637585096406" Properties=species:S:1:pos:R:3:initial_magmoms:R:1 pbc="T T T"
Si       1.35514881       1.35790684       1.35731554       0.00000000
Si       1.35775521      -1.35712044      -1.35755694       0.00000000
Si      -1.35858600       1.35746050      -1.35676376       0.00000000
Si      -1.35775521      -1.35720189       1.35828116       0.00000000
Si      -2.71505430      -0.00044445      -2.71235498       0.00000000
Si       2.71427900       0.00146581      -2.71463108       0.00000000
Si      -0.00045612       2.71520756      -2.71401032       0.00000000
Si      -2.71500543      -2.71476162      -0.00017243       0.00000000
Si       0.00100998       2.71730897       2.71259638       0.00000000
Si       2.71511763       2.71491434      -0.00017243       0.00000000
