10
Lattice="16.28999089631971 0.0 0.0 0.0 16.28999089631971 0.0 0.0 0.0 34.48637585096406" Properties=species:S:1:pos:R:3:initial_magmoms:R:1 pbc="T T T"
Si       0.96324955       1.77676659       1.23982039       0.00000000
Si      -1.17533979       1.48507785      -1.45363604       0.00000000
Si       1.55594002      -1.21805543      -1.43732398       0.00000000
Si      -1.28774079      -1.50884496       1.54471461       0.00000000
Si       1.88129042       0.57660084       3.08222156       0.00000000
Si      -2.52133362      -2.70040049      -0.07173170       0.00000000
Si      -2.51182026       0.14620275      -2.82791889       0.00000000
Si       0.20527029      -2.57096680      -2.82167685       0.00000000
Si      -2.60135010       2.80315062      -0.04386669       0.00000000
Si       2.92924241      -2.54837095       0.06635182       0.00000000
