10
Lattice="16.28999089631971 0.0 0.0 0.0 16.28999089631971 0.0 0.0 0.0 34.48637585096406" Properties=species:S:1:pos:R:3:initial_magmoms:R:1 pbc="T T T"
Si      -1.58926869      -0.30320577       1.67931501       0.00000000
Si      -0.47082987       2.29519584      -0.32503427       0.00000000
Si      -0.12714345      -1.53104497      -1.81270839       0.00000000
Si       1.81457309      -0.88321122       1.25702910       0.00000000
Si      -1.37404521      -2.58306362       2.18485108       0.00000000
Si      -2.92351743       2.06982369      -0.74645802       0.00000000
Si      -2.49640992       0.56850471      -2.62172473       0.00000000
Si       2.08466292       0.78675813       2.93655103       0.00000000
Si       0.01218492      -0.28773027       3.68352635       0.00000000
Si       0.93610485      -3.02942591       1.92278896       0.00000000
