10
Lattice="16.28999089631971 0.0 0.0 0.0 16.28999089631971 0.0 0.0 0.0 34.48637585096406" Properties=species:S:1:pos:R:3:initial_magmoms:R:1 pbc="T T T"
Si       1.48265064       1.17429723       1.34619165       0.00000000
Si       1.66974129      -0.99935892      -1.37980067       0.00000000
Si      -1.03501773       1.43389467      -1.60230689       0.00000000
Si      -1.28295153      -1.42131065       1.44192588       0.00000000
Si       0.06828768      -1.01483442      -3.38401201       0.00000000
Si       0.96886404       3.07341801      -1.51781522       0.00000000
Si       2.43393777      -2.66942764       0.25225526       0.00000000
Si      -2.59561602       2.54537766      -0.24233590       0.00000000
Si       0.01381392       2.58940953       2.77082808       0.00000000
Si       3.07105826       2.29648275       0.08833680       0.00000000
