10
Lattice="16.28999089631971 0.0 0.0 0.0 16.28999089631971 0.0 0.0 0.0 34.48637585096406" Properties=species:S:1:pos:R:3:initial_magmoms:R:1 pbc="T T T"
Si       1.34244261       1.36536264       1.38397007       0.00000000
Si      -1.37378457      -1.34804637       1.38293548       0.00000000
Si      -1.33564968       1.31484735      -1.50248602       0.00000000
Si       1.46883672      -1.41511230      -1.42463643       0.00000000
Si      -0.01381392      -2.58940953      -2.77082808       0.00000000
Si      -2.70484047       2.68973964       0.01994348       0.00000000
Si       2.68194001       2.71671588       0.02086772       0.00000000
Si       2.70342324      -2.71937115       0.04156645       0.00000000
Si      -2.72839581      -2.70387936       0.01533265       0.00000000
Si       2.69910639       0.00876402       2.74276853       0.00000000
