10
Lattice="16.28999089631971 0.0 0.0 0.0 16.28999089631971 0.0 0.0 0.0 34.48637585096406" Properties=species:S:1:pos:R:3:initial_magmoms:R:1 pbc="T T T"
Si       1.30696299       1.10954448      -1.59827198       0.00000000
Si      -1.33599177      -1.53033147      -1.43108194       0.00000000
Si       2.03054850      -0.84755241       1.38742216       0.00000000
Si      -1.24121655       2.13291486       1.08339010       0.00000000
Si       0.91251693       0.46338534       3.06456453       0.00000000
Si      -1.50315975       0.06199974       3.30890064       0.00000000
Si       2.05978905       3.02935356      -0.40835340       0.00000000
Si       2.64217284      -2.74440888       0.08700917       0.00000000
Si       0.04670343       2.51683758      -2.93351623       0.00000000
Si       2.64266154       2.23661700       1.74545992       0.00000000
