10
Lattice="16.28999089631971 0.0 0.0 0.0 16.28999089631971 0.0 0.0 0.0 34.48637585096406" Properties=species:S:1:pos:R:3:initial_magmoms:R:1 pbc="T T T"
Si       2.30568660      -0.71724870      -0.05721293       0.00000000
Si      -0.11181456       1.37326329      -2.06808014       0.00000000
Si      -1.50241041      -0.51399837       2.08028833       0.00000000
Si       0.69230871       2.37889386       0.92378707       0.00000000
Si      -1.45135755       3.11880195      -1.00038135       0.00000000
Si      -2.85233013      -1.24724385      -2.12415502       0.00000000
Si       2.71726974      -1.58532651      -2.21595781       0.00000000
Si      -1.11192282      -3.09614256      -2.02352372       0.00000000
Si       2.80552896      -1.94346216       1.93792849       0.00000000
Si      -1.76503779       0.36812142      -3.49629971       0.00000000
