10
Lattice="16.28999089631971 0.0 0.0 0.0 16.28999089631971 0.0 0.0 0.0 34.48637585096406" Properties=species:S:1:pos:R:3:initial_magmoms:R:1 pbc="T T T"
Si       0.82297080       1.89996786      -1.01331375       0.00000000
Si       1.79180226      -1.49514507       0.14304957       0.00000000
Si      -0.57495555       0.76124799       2.13615629       0.00000000
Si      -1.87139520      -0.87544089      -1.14063752       0.00000000
Si      -1.08041796       2.71305063      -2.07525331       0.00000000
Si      -1.94201235      -3.02401044      -0.13735931       0.00000000
Si      -2.47388085      -0.55133505       2.60841298       0.00000000
Si       1.24356231       3.33312948       0.80715408       0.00000000
Si       1.43927037      -2.90870982      -1.70455905       0.00000000
Si       2.83128345       1.29068928      -2.04983684       0.00000000
