10
Lattice="16.28999089631971 0.0 0.0 0.0 16.28999089631971 0.0 0.0 0.0 34.48637585096406" Properties=species:S:1:pos:R:3:initial_magmoms:R:1 pbc="T T T"
Si       1.38489435      -1.85233590       0.27416684       0.00000000
Si      -0.80083269       1.07466759       1.96693155       0.00000000
Si      -1.97232804      -0.26533152      -1.33383030       0.00000000
Si       1.46419407       1.59541002      -1.13170554       0.00000000
Si      -2.05859988       2.08844316      -1.25589105       0.00000000
Si       0.56249370      -2.44423305       2.33424614       0.00000000
Si      -1.56771702       3.02308191       0.86522917       0.00000000
Si      -0.15381018       2.30654997      -2.66283251       0.00000000
Si       1.15693209       1.21674897       3.25868845       0.00000000
Si       0.50730318      -3.46333545      -1.17757245       0.00000000
