10
Lattice="16.28999089631971 0.0 0.0 0.0 16.28999089631971 0.0 0.0 0.0 34.48637585096406" Properties=species:S:1:pos:R:3:initial_magmoms:R:1 pbc="T T T"
Si       1.95776478       0.14208138       1.29175690       0.00000000
Si      -0.76688433       1.94841432      -1.10170238       0.00000000
Si       0.80083269      -1.07466759      -1.96693155       0.00000000
Si      -1.96664283      -0.02832831       1.36041931       0.00000000
Si      -1.42182378       1.97980515       2.55426934       0.00000000
Si      -1.25776719       1.01377557      -3.22282260       0.00000000
Si       2.20933125      -2.06954676       2.04907814       0.00000000
Si      -1.17149535      -1.33999911      -3.30076185       0.00000000
Si       1.36332639      -3.51890064       0.36731459       0.00000000
Si       1.01335203       3.47079627      -1.20364416       0.00000000
