10
Lattice="16.28999089631971 0.0 0.0 0.0 16.28999089631971 0.0 0.0 0.0 34.48637585096406" Properties=species:S:1:pos:R:3:initial_magmoms:R:1 pbc="T T T"
Si      -1.09563282       0.48443202       2.06087249       0.00000000
Si       0.83856033       1.89016128      -1.26534032       0.00000000
Si      -0.69230871      -2.37889386      -0.92378707       0.00000000
Si       2.66826942      -0.24519708       0.66169046       0.00000000
Si      -2.80479591       0.82140696       0.46297985       0.00000000
Si      -2.14366626       0.73990809      -1.92416842       0.00000000
Si      -0.80412327      -1.00563057      -2.99186721       0.00000000
Si      -1.16571240       3.05403291      -1.42211548       0.00000000
Si       1.61337789      -3.09614256      -0.98100000       0.00000000
Si      -1.58032548      -1.57359771       3.00217864       0.00000000
