10
Lattice="16.28999089631971 0.0 0.0 0.0 16.28999089631971 0.0 0.0 0.0 34.48637585096406" Properties=species:S:1:pos:R:3:initial_magmoms:R:1 pbc="T T T"
Si       0.44382105       0.76132944       2.30143375       0.00000000
Si      -0.79296462      -2.34535275       0.06807614       0.00000000
Si       1.55346327      -0.56224935      -1.85333336       0.00000000
Si      -1.38008880       1.42157943      -1.72845812       0.00000000
Si      -0.41169717      -2.08575531      -2.30075985       0.00000000
Si      -2.05115535      -0.58585356      -2.94841435       0.00000000
Si       1.19905803      -1.12959747       3.66998841       0.00000000
Si       1.07018784      -3.89870199       0.70869542       0.00000000
Si       0.25897842       2.35494756      -3.39411652       0.00000000
Si       3.51499104      -1.83208743      -1.32772621       0.00000000
