10
Lattice="16.28999089631971 0.0 0.0 0.0 16.28999089631971 0.0 0.0 0.0 34.48637585096406" Properties=species:S:1:pos:R:3:initial_magmoms:R:1 pbc="T T T"
Si      -1.47936006      -1.60031331      -0.77539211       0.00000000
Si      -0.70885935       0.63395793       2.15346846       0.00000000
Si       1.49862528      -1.70816940       0.93747817       0.00000000
Si       0.64171197       2.01070728      -1.29530900       0.00000000
Si       1.17436795      -0.53265042       2.98428020       0.00000000
Si      -0.31179060       2.93568999       1.63596561       0.00000000
Si      -0.26508717      -2.10123081      -2.77484432       0.00000000
Si       2.25025892       0.96348834      -2.64821028       0.00000000
Si      -3.48363279      -0.43644168      -0.93216726       0.00000000
Si       1.53973962       3.59025477       0.17419078       0.00000000
