10
Lattice="16.28999089631971 0.0 0.0 0.0 16.28999089631971 0.0 0.0 0.0 34.48637585096406" Properties=species:S:1:pos:R:3:initial_magmoms:R:1 pbc="T T T"
Si      -1.12638834       0.91859310      -1.82795137       0.00000000
Si       1.21125924       1.47232278       1.41628727       0.00000000
Si       1.58578263      -1.73359809      -0.56161094       0.00000000
Si      -1.63906722      -0.93336813       1.66565840       0.00000000
Si       1.29448485      -2.91719691       1.54078316       0.00000000
Si      -1.89675873      -1.11941622      -2.85288704       0.00000000
Si       3.63087810      -0.60918084      -0.48956887       0.00000000
Si      -2.31013377      -2.94080112       0.44570217       0.00000000
Si       3.52140930       1.02596049       1.15422516       0.00000000
Si       0.21364335       2.21268440      -3.29472673       0.00000000
