10
Lattice="16.28999089631971 0.0 0.0 0.0 16.28999089631971 0.0 0.0 0.0 34.48637585096406" Properties=species:S:1:pos:R:3:initial_magmoms:R:1 pbc="T T T"
Si       0.42499958      -1.25709930       1.92941035       0.00000000
Si      -0.79213383      -1.37298636      -1.76415154       0.00000000
Si       2.27032101       0.37690173      -0.61458205       0.00000000
Si      -1.65785678       1.42954524       0.94720333       0.00000000
Si      -1.73715650      -2.01820068       2.35307571       0.00000000
Si       1.29582063      -2.41701246      -2.32855589       0.00000000
Si      -3.12205085      -0.16586478       2.07890887       0.00000000
Si       2.42232300      -0.36461907      -2.87978642       0.00000000
Si       1.35335691       0.26344188       3.53230351       0.00000000
Si      -1.68813989       0.09824499      -3.44091456       0.00000000
