10
Lattice="16.28999089631971 0.0 0.0 0.0 16.28999089631971 0.0 0.0 0.0 34.48637585096406" Properties=species:S:1:pos:R:3:initial_magmoms:R:1 pbc="T T T"
Si      -0.95742846       1.72033803      -1.28630805       0.00000000
Si      -0.15200199       0.74152080       2.26520438       0.00000000
Si      -1.12650237      -2.05239339       0.55123054       0.00000000
Si       2.12268474       0.41427099      -1.11487618       0.00000000
Si       1.12464531      -1.17651267       2.86868181       0.00000000
Si      -0.95726556       0.38858166      -3.26793080       0.00000000
Si       0.63807930       3.40034202      -0.67172600       0.00000000
Si      -3.21445683      -1.00836729       1.11563488       0.00000000
Si       2.64622905       2.38079979       0.25895834       0.00000000
Si      -2.42232300       0.36461907       2.87978642       0.00000000
