10
Lattice="16.28999089631971 0.0 0.0 0.0 16.28999089631971 0.0 0.0 0.0 34.48637585096406" Properties=species:S:1:pos:R:3:initial_magmoms:R:1 pbc="T T T"
Si       0.80940123      -1.28528100       1.77994631       0.00000000
Si      -1.44961778       1.71589086       0.66986374       0.00000000
Si       2.12349924       0.91044810      -0.52581407       0.00000000
Si      -0.92835733      -1.52054118      -1.60289316       0.00000000
Si       1.92779118      -2.66512545       0.20974626       0.00000000
Si       0.91429254      -2.92115538      -1.89219953       0.00000000
Si      -1.35335691      -0.26344188      -3.53230351       0.00000000
Si       2.57162085       2.53829151       1.18067622       0.00000000
Si      -3.31847567       0.78744231       1.80529381       0.00000000
Si       2.04395517       1.72235799      -2.79863994       0.00000000
