10
Lattice="16.28999089631971 0.0 0.0 0.0 16.28999089631971 0.0 0.0 0.0 34.48637585096406" Properties=species:S:1:pos:R:3:initial_magmoms:R:1 pbc="T T T"
Si       1.35730648       1.35711990       1.35690170       0.00000000
Si       1.35717290      -1.35708895      -1.35728105       0.00000000
Si      -1.35710178       1.35759231      -1.35755694       0.00000000
Si      -1.35996882      -1.35700750       1.35748797       0.00000000
Si      -2.71410765       0.00239463       2.71276881       0.00000000
Si      -0.00083863      -2.71344853      -2.71445865       0.00000000
Si       2.71418366      -0.00073305      -2.71480351       0.00000000
Si      -2.71557375       0.00029322      -2.71383789       0.00000000
Si       2.71486784       2.71513575       0.00003449       0.00000000
Si      -2.71511763      -2.71491434       0.00017243       0.00000000
