10
Lattice="16.28999089631971 0.0 0.0 0.0 16.28999089631971 0.0 0.0 0.0 34.48637585096406" Properties=species:S:1:pos:R:3:initial_magmoms:R:1 pbc="T T T"
Si       1.34385984       1.33073010       1.38080767       0.00000000
Si       1.48006053      -1.26136728      -1.36154012       0.00000000
Si      -1.37132967      -1.38383550       1.36980651       0.00000000
Si      -1.23113630       1.38595320      -1.58974005       0.00000000
Si      -0.49668210      -2.02745340      -2.51857972       0.00000000
Si      -2.36649065      -0.55480482      -2.65068709       0.00000000
Si       2.68856676       2.69104284      -0.00621790       0.00000000
Si      -2.71148029       2.67452478       0.00043108       0.00000000
Si      -0.01006722       2.68727985       2.73574365       0.00000000
Si       2.70200601      -0.02557530       2.73667478       0.00000000
