10
Lattice="16.28999089631971 0.0 0.0 0.0 16.28999089631971 0.0 0.0 0.0 34.48637585096406" Properties=species:S:1:pos:R:3:initial_magmoms:R:1 pbc="T T T"
Si       1.23113630      -1.38595320       1.58974005       0.00000000
Si      -1.13535436      -1.94075802      -1.06094705       0.00000000
Si       1.17490322       1.41244074      -1.69637340       0.00000000
Si      -1.48034399       1.28857158       1.59017113       0.00000000
Si       0.73445420      -3.41340660      -0.92883967       0.00000000
Si       2.58503078       2.64047868      -0.03057564       0.00000000
Si       2.71119683      -2.64732048       0.22819993       0.00000000
Si      -0.34318469       3.05872443      -2.39737835       0.00000000
Si       2.57499614      -0.05522310       2.97054772       0.00000000
Si      -3.15529548       2.35991601       0.33976686       0.00000000
