10
Lattice="16.28999089631971 0.0 0.0 0.0 16.28999089631971 0.0 0.0 0.0 34.48637585096406" Properties=species:S:1:pos:R:3:initial_magmoms:R:1 pbc="T T T"
Si      -1.35846602       1.35917269       1.36169531       0.00000000
Si       1.35966766      -1.35822762       1.36148839       0.00000000
Si      -1.34174541      -1.37098269      -1.37382418       0.00000000
Si       1.38035596       1.34615067      -1.37376555       0.00000000
Si      -0.01968158       2.70008446      -2.66464995       0.00000000
Si       2.71359472      -2.71477737       0.00655242       0.00000000
Si      -2.70471082      -2.72422557       0.00603512       0.00000000
Si      -2.71282324       2.71662533       0.00548334       0.00000000
Si       2.71708078       2.71515108       0.00344864       0.00000000
Si       2.71462099       0.00076563       2.71842458       0.00000000
