10
Lattice="16.28999089631971 0.0 0.0 0.0 16.28999089631971 0.0 0.0 0.0 34.48637585096406" Properties=species:S:1:pos:R:3:initial_magmoms:R:1 pbc="T T T"
Si      -1.35955688      -1.35042471       1.35214258       0.00000000
Si       1.35850455      -1.35462753      -1.36055726       0.00000000
Si      -1.35607408       1.36052451      -1.36024688       0.00000000
Si       1.34625447       1.39108455       1.36279888       0.00000000
Si      -2.71001159      -2.71401174      -0.00241405       0.00000000
Si       2.71383255      -2.71091664       0.00110356       0.00000000
Si      -2.71066319       2.71794726       0.00124151       0.00000000
Si       0.00081450      -2.71208952      -2.71763139       0.00000000
Si      -2.71340019       0.00241092      -2.71728653       0.00000000
Si       2.71435383       2.71688401      -0.00093113       0.00000000
