10
Lattice="16.28999089631971 0.0 0.0 0.0 16.28999089631971 0.0 0.0 0.0 34.48637585096406" Properties=species:S:1:pos:R:3:initial_magmoms:R:1 pbc="T T T"
Si       1.29168297      -1.11855285      -1.67745275       0.00000000
Si      -0.35982981      -2.03509341       1.21916304       0.00000000
Si       0.84734064       1.58931756       1.70152425       0.00000000
Si      -1.63494585       1.32716259      -1.38407698       0.00000000
Si      -2.38657948      -1.34449515       2.20161146       0.00000000
Si       1.41027417      -1.87869312       2.74504808       0.00000000
Si      -0.54201717      -2.36907099      -2.76811948       0.00000000
Si       2.41794099       0.54358101      -2.90371998       0.00000000
Si       1.61611461       0.29023893       3.59862084       0.00000000
Si       2.59701696       2.90274768       0.70245338       0.00000000
