10
Lattice="16.28999089631971 0.0 0.0 0.0 16.28999089631971 0.0 0.0 0.0 34.48637585096406" Properties=species:S:1:pos:R:3:initial_magmoms:R:1 pbc="T T T"
Si      -1.60854695       1.04721894       1.35290128       0.00000000
Si      -1.62526049      -1.15843077      -1.32362233       0.00000000
Si       1.14658794       1.73810539      -1.24344146       0.00000000
Si       1.63494585      -1.32716259       1.38407698       0.00000000
Si      -2.25025892      -0.96348834       2.64821028       0.00000000
Si      -0.22627787      -2.35286244      -2.78056907       0.00000000
Si       2.47953348       0.38864682      -2.76991277       0.00000000
Si       2.92662882      -2.44571544      -0.29337576       0.00000000
Si      -0.71051930       2.62676643       2.82240106       0.00000000
Si      -2.51534609      -3.06471915      -0.12663404       0.00000000
