10
Lattice="16.28999089631971 0.0 0.0 0.0 16.28999089631971 0.0 0.0 0.0 34.48637585096406" Properties=species:S:1:pos:R:3:initial_magmoms:R:1 pbc="T T T"
Si      -1.46484567       1.48788480       1.15532872       0.00000000
Si       1.74967632       1.31343012      -0.99907087       0.00000000
Si       0.76877397      -1.29907863       1.89709660       0.00000000
Si      -0.84734064      -1.58931756      -1.70152425       0.00000000
Si       3.48210153       0.70130079       0.41569901       0.00000000
Si       0.56293353      -3.46801068       1.04352383       0.00000000
Si       2.70027927      -0.08845470       2.47767506       0.00000000
Si       1.10830644       3.51273392      -0.51553712       0.00000000
Si      -2.24492490       0.17443332       3.05497731       0.00000000
Si      -1.20717045      -3.62441097      -0.48236121       0.00000000
