10
Lattice="16.28999089631971 0.0 0.0 0.0 16.28999089631971 0.0 0.0 0.0 34.48637585096406" Properties=species:S:1:pos:R:3:initial_magmoms:R:1 pbc="T T T"
Si      -0.80324361       2.13192347      -0.56943936       0.00000000
Si       1.98123867      -0.53543601      -1.23685456       0.00000000
Si      -0.25923906       0.15869718       2.39745970       0.00000000
Si      -1.37960825      -1.86701319      -0.69631480       0.00000000
Si      -3.24668564      -0.96010002       0.31937851       0.00000000
Si      -1.86398651       1.38378567      -2.57730625       0.00000000
Si       1.16089056       3.30150149       0.14384275       0.00000000
Si       0.22986819      -2.16272556       2.77005072       0.00000000
Si      -2.54767178      -0.31306122       2.51171313       0.00000000
Si       0.94876218      -1.59446520      -3.08953268       0.00000000
