10
Lattice="16.28999089631971 0.0 0.0 0.0 16.28999089631971 0.0 0.0 0.0 34.48637585096406" Properties=species:S:1:pos:R:3:initial_magmoms:R:1 pbc="T T T"
Si      -2.28843272      -0.47175840       0.11425343       0.00000000
Si       0.48910725      -2.32142274       0.37259101       0.00000000
Si       0.25923906      -0.15869718      -2.39745970       0.00000000
Si       0.31045482       1.71059402       1.76956591       0.00000000
Si       3.16315962       0.14450859       0.63789485       0.00000000
Si       1.89643293       0.26987643       2.77239579       0.00000000
Si       2.78329311      -2.10944097      -0.04359080       0.00000000
Si      -2.35397735      -1.66684167       2.15305462       0.00000000
Si      -0.54400455       1.97322629      -2.96689906       0.00000000
Si       2.91185379       2.23835744      -0.51822706       0.00000000
