10
Lattice="16.28999089631971 0.0 0.0 0.0 16.28999089631971 0.0 0.0 0.0 34.48637585096406" Properties=species:S:1:pos:R:3:initial_magmoms:R:1 pbc="T T T"
Si      -1.51808791       1.64628369      -0.70100495       0.00000000
Si      -1.17490322      -1.41244074       1.69637340       0.00000000
Si       1.41012756       1.22803794       1.66579776       0.00000000
Si       0.84962124      -0.08317674      -2.46332872       0.00000000
Si       3.37338207       2.26478241       0.39766262       0.00000000
Si      -2.95177148       2.76818155       0.76106753       0.00000000
Si      -2.31025757      -3.35319876       0.63542635       0.00000000
Si      -0.65909340      -1.12822911      -3.93386309       0.00000000
Si       0.06685416       2.59326420       3.28660316       0.00000000
Si      -2.79204803       1.69655463      -2.63172578       0.00000000
