10
Lattice="10.86 0.0 0.0 0.0 10.86 0.0 0.0 0.0 10.86" Properties=species:S:1:pos:R:3:initial_magmoms:R:1 pbc="T T T"
Si       1.46131074      -1.59850512      -0.83228868       0.00000000
Si      -1.49550888       1.45711878      -1.17678960       0.00000000
Si       1.21949112       1.45711878       1.53821040       0.00000000
Si      -1.49550888      -1.25788122       1.53821040       0.00000000
Si       0.85531188      -3.08088426       0.75134910       0.00000000
Si       2.40316596       0.32185782      -2.41372188       0.00000000
Si       0.08589174      -2.59678890      -2.55675894       0.00000000
Si       2.42825256      -0.04565544       2.86724634       0.00000000
Si      -0.13800888       2.81461878      -2.53428960       0.00000000
Si      -2.85300888       0.09961878      -2.53428960       0.00000000
