10
Lattice="10.86 0.0 0.0 0.0 10.86 0.0 0.0 0.0 10.86" Properties=species:S:1:pos:R:3:initial_magmoms:R:1 pbc="T T T"
Si       0.60599886       1.48237914      -1.58363778       0.00000000
Si      -0.77679408       0.32792856       2.13175284       0.00000000
Si      -0.89828490      -2.12216346      -0.65242536       0.00000000
Si      -2.35082076       1.82300304       0.78686130       0.00000000
Si      -2.35082076      -0.89199696      -1.92813870       0.00000000
Si      -0.85531188       3.08088426      -0.75134910       0.00000000
Si      -0.76942014       0.48409536      -3.30810804       0.00000000
Si      -3.70832076       0.46550304      -0.57063870       0.00000000
Si       0.36417924       1.82300304       3.50186130       0.00000000
Si       1.57294068       3.03522882       2.11589724       0.00000000
