10
Lattice="10.86 0.0 0.0 0.0 10.86 0.0 0.0 0.0 10.86" Properties=species:S:1:pos:R:3:initial_magmoms:R:1 pbc="T T T"
Si      -1.20876144      -1.21222578       1.38596406       0.00000000
Si      -1.20876144       1.50277422      -1.32903594       0.00000000
Si       1.50623856       1.50277422       1.38596406       0.00000000
Si       2.61566358      -2.41729482      -0.22841838       0.00000000
Si      -2.34973476      -2.70730026       0.01585560       0.00000000
Si      -2.42825256       0.04565544      -2.86724634       0.00000000
Si      -2.56626144       0.14527422       2.74346406       0.00000000
Si       0.14873856      -2.56972578       2.74346406       0.00000000
Si      -2.56626144       2.86027422       0.02846406       0.00000000
Si       0.14873856       2.86027422      -2.68653594       0.00000000
