10
Lattice="10.86 0.0 0.0 0.0 10.86 0.0 0.0 0.0 10.86" Properties=species:S:1:pos:R:3:initial_magmoms:R:1 pbc="T T T"
Si       1.38203274       1.25292906      -1.45313316       0.00000000
Si       1.38203274      -1.46207094       1.26186684       0.00000000
Si      -1.33296726      -1.46207094      -1.45313316       0.00000000
Si      -0.00729792       2.47509174       2.60540088       0.00000000
Si      -2.60600904       2.52845778       0.02971296       0.00000000
Si       2.73953274       2.61042906      -0.09563316       0.00000000
Si       2.73953274      -0.10457094       2.61936684       0.00000000
Si       0.02453274       2.61042906      -2.81063316       0.00000000
Si       0.02453274      -2.81957094       2.61936684       0.00000000
Si      -2.69046726      -0.10457094      -2.81063316       0.00000000
