10
Lattice="16.290000149 0.0 0.0 0.0 16.290000149 0.0 0.0 0.0 29.1751946751" Properties=species:S:1:pos:R:3:initial_magmoms:R:1 pbc="T T T"
Si       1.32958981       1.37844352      -1.37818660       0.00000000
Si       1.35008263      -1.36094806       1.37670158       0.00000000
Si      -1.36298431       1.34291503       1.39624313       0.00000000
Si      -1.38380293      -1.38803833      -1.33731215       0.00000000
Si       2.53319276      -0.09532908      -2.80301558       0.00000000
Si      -2.64670148      -2.75283084       0.08659781       0.00000000
Si      -2.83706643       0.01982493      -2.55954858       0.00000000
Si       2.72207531       0.04390155       2.69014842       0.00000000
Si      -0.06799446       2.80021845      -2.61451465       0.00000000
Si       2.63743247       2.82794403      -0.00558997       0.00000000
