10
Lattice="16.290000149 0.0 0.0 0.0 16.290000149 0.0 0.0 0.0 29.1751946751" Properties=species:S:1:pos:R:3:initial_magmoms:R:1 pbc="T T T"
Si       1.14181498       0.13009194      -2.06041060       0.00000000
Si      -0.91727362      -1.83215261       1.17424324       0.00000000
Si       1.55831770       0.78433093       1.59261553       0.00000000
Si      -1.93310174       1.49374414      -0.30855686       0.00000000
Si      -1.96237487      -0.33513417       2.62862669       0.00000000
H       -2.85514833       0.50231844       1.73925006       0.00000000
H        1.85183093      -2.84382678      -0.13656909       0.00000000
Si      -0.05854626       0.95780314       3.26881799       0.00000000
Si       2.39200733       2.71549253       0.57478051       0.00000000
Si       2.65507454       1.98242786      -1.63599904       0.00000000
