10
Lattice="16.290000149 0.0 0.0 0.0 16.290000149 0.0 0.0 0.0 29.1751946751" Properties=species:S:1:pos:R:3:initial_magmoms:R:1 pbc="T T T"
Si      -1.31820310       1.15126318       1.57633285       0.00000000
Si       1.42653160      -1.36650295       1.33581546       0.00000000
Si      -1.30784266      -1.44950050      -1.37259663       0.00000000
Si       0.83395027       1.99660016      -1.09608756       0.00000000
H        1.91156636       0.28496097      -1.87653977       0.00000000
Si      -0.90192844       3.54437823      -0.63259991       0.00000000
Si      -2.71753040       2.51229269       0.33010566       0.00000000
Si      -2.70542693      -0.02772558      -2.60892468       0.00000000
Si       0.09374895       2.61777044       2.79309601       0.00000000
Si      -2.63743247      -2.82794403       0.00558997       0.00000000
