10
Lattice="16.290000149 0.0 0.0 0.0 16.290000149 0.0 0.0 0.0 29.1751946751" Properties=species:S:1:pos:R:3:initial_magmoms:R:1 pbc="T T T"
Si      -1.26289855      -1.36479250       1.42390996       0.00000000
Si      -1.45326349       1.40786326      -1.22223643       0.00000000
Si       0.95535964      -1.26557011      -1.75695940       0.00000000
Si       1.38380293       1.38803833       1.33731215       0.00000000
Si       2.35533854       0.16596252      -2.93236964       0.00000000
Si      -2.68863194       0.01668096       2.71354985       0.00000000
Si      -2.07075224      -3.22351410       0.24029332       0.00000000
Si       2.73388556       0.02709027       2.71401373       0.00000000
Si       0.02081862       2.73095336       2.73355528       0.00000000
Si      -0.19419309       2.89694847      -2.55014542       0.00000000
