10
Lattice="16.290000149 0.0 0.0 0.0 16.290000149 0.0 0.0 0.0 29.1751946751" Properties=species:S:1:pos:R:3:initial_magmoms:R:1 pbc="T T T"
Si       1.34604108       1.32910111      -1.38260372       0.00000000
Si      -1.33167656      -1.36148563      -1.37625228       0.00000000
Si      -1.35531335       1.38748447       1.33044723       0.00000000
Si       1.36830951      -1.35000118       1.36332767       0.00000000
Si      -2.62793703      -2.67520898       0.09254372       0.00000000
Si       2.70514838       2.69433344      -0.01304131       0.00000000
Si      -2.69679486       0.03490947       2.71621062       0.00000000
Si      -0.03940551       2.66963780      -2.75412087       0.00000000
Si       0.00753901       2.71640639       2.71203857       0.00000000
Si       2.72743310       0.00355122       2.71883639       0.00000000
