10
Lattice="16.290000149 0.0 0.0 0.0 16.290000149 0.0 0.0 0.0 29.1751946751" Properties=species:S:1:pos:R:3:initial_magmoms:R:1 pbc="T T T"
Si      -0.93934657       1.02954430      -1.83389439       0.00000000
Si       1.06989463       1.74990440       1.07338459       0.00000000
Si       1.32641326      -1.55885527      -1.15589204       0.00000000
Si      -1.93479590      -1.02649807       0.90979927       0.00000000
H        0.55042282      -1.24885657       2.40955015       0.00000000
Si       0.74433898      -2.63612927       1.80836609       0.00000000
Si      -1.70668703      -1.02302830      -2.70570755       0.00000000
Si      -2.23265855       2.52514550      -0.50318458       0.00000000
Si      -1.13513608      -3.17918738       0.53612338       0.00000000
Si      -0.48200481      -2.89237912      -1.75675517       0.00000000
