10
Lattice="16.290000149 0.0 0.0 0.0 16.290000149 0.0 0.0 0.0 29.1751946751" Properties=species:S:1:pos:R:3:initial_magmoms:R:1 pbc="T T T"
Si       1.37528326       1.34237746      -1.34200060       0.00000000
Si       1.36186030      -1.39434256       1.30488976       0.00000000
Si      -1.35459496      -1.35394336      -1.35979747       0.00000000
Si      -1.35254242       1.36984240       1.35063646       0.00000000
Si       0.00584811       2.69057045      -2.68257162       0.00000000
Si       2.78210397      -0.08475687       2.61876547       0.00000000
Si      -2.74144413       0.01040931       2.66398703       0.00000000
Si       0.01257588      -2.75217924       2.65794776       0.00000000
Si       0.01456326      -2.73289187      -2.68225070       0.00000000
Si       0.02366937       2.73592182       2.68750223       0.00000000
