10
Lattice="16.290000149 0.0 0.0 0.0 16.290000149 0.0 0.0 0.0 29.1751946751" Properties=species:S:1:pos:R:3:initial_magmoms:R:1 pbc="T T T"
Si      -1.30197826      -1.35368272       1.43430800       0.00000000
Si       1.36140581      -1.45580473      -1.28701995       0.00000000
Si       1.37944699       1.28622583       1.44644488       0.00000000
Si      -1.30150585       1.52819749      -1.31949778       0.00000000
Si       2.70104492       0.00974142      -2.52144082       0.00000000
Si      -2.52765416       2.72939229       0.28198117       0.00000000
Si      -2.65070882      -2.68710068       0.04783565       0.00000000
Si       2.78534568       2.68231142       0.19527833       0.00000000
Si      -2.64168416      -0.05258412       2.86406759       0.00000000
Si       0.17658051       2.83658050      -2.69170638       0.00000000
