10
Lattice="16.290000149 0.0 0.0 0.0 16.290000149 0.0 0.0 0.0 29.1751946751" Properties=species:S:1:pos:R:3:initial_magmoms:R:1 pbc="T T T"
Si      -1.85868902       0.02428025       1.37245951       0.00000000
Si      -1.27661473       1.10155424      -1.59179862       0.00000000
Si       1.55727514       1.68789651       0.46102643       0.00000000
Si       0.40107609      -2.29670269       0.31468365       0.00000000
H        1.80773390       0.57608771      -2.36146943       0.00000000
H       -2.05260518       1.41155295       1.97364357       0.00000000
Si       2.01794006      -2.47017490      -1.36151881       0.00000000
Si      -1.07699707      -1.26611583       3.07777589       0.00000000
Si       0.82243324       2.31471943       2.64271627       0.00000000
Si      -2.60302799       2.66040952      -0.43590658       0.00000000
