10
Lattice="16.290000149 0.0 0.0 0.0 16.290000149 0.0 0.0 0.0 29.1751946751" Properties=species:S:1:pos:R:3:initial_magmoms:R:1 pbc="T T T"
Si      -1.32779791       1.32273172       1.40810576       0.00000000
Si      -1.41209866      -1.34983828      -1.30861339       0.00000000
Si       1.34568433      -1.39126375       1.35109160       0.00000000
Si       1.31168710       1.42213949      -1.35475192       0.00000000
Si       0.00503361      -2.58282839      -2.65090487       0.00000000
Si      -2.59350486       2.69322572       0.00511441       0.00000000
Si       2.65176767       2.67991679       0.10497819       0.00000000
Si      -2.73369660      -0.07335387       2.65927231       0.00000000
Si       2.68610699      -0.06744060       2.75105748       0.00000000
Si      -0.00718389      -2.79068880       2.66688704       0.00000000
