10
Lattice="16.290000149 0.0 0.0 0.0 16.290000149 0.0 0.0 0.0 29.1751946751" Properties=species:S:1:pos:R:3:initial_magmoms:R:1 pbc="T T T"
Si       1.24740676      -1.37135737       1.41362863       0.00000000
Si      -1.28967931       1.44699184       1.32792941       0.00000000
Si       1.90659791       0.78970663      -1.12411150       0.00000000
Si      -1.83648575      -0.88093063      -1.18677690       0.00000000
H        0.74005471      -1.77997574      -1.91917640       0.00000000
Si       1.25952652       1.21878523      -3.25534196       0.00000000
Si       2.66621690       0.05892093       2.64822950       0.00000000
Si      -2.71440272       0.06529032       2.61879173       0.00000000
Si       2.75271681      -2.60349552       0.13803952       0.00000000
Si      -3.47439639       0.84848095      -1.27387302       0.00000000
