10
Lattice="16.290000149 0.0 0.0 0.0 16.290000149 0.0 0.0 0.0 29.1751946751" Properties=species:S:1:pos:R:3:initial_magmoms:R:1 pbc="T T T"
Si      -1.31289256       0.45872640      -0.60445168       0.00000000
H        0.57058984      -0.12474882      -2.33045620       0.00000000
Si       1.75518236      -0.63602677      -1.52939288       0.00000000
Si       1.06419313      -2.49671945      -0.10800657       0.00000000
Si      -2.57021993       0.70605748       1.33342310       0.00000000
Si      -2.28450962      -1.53894889      -1.47924072       0.00000000
Si       0.43274385      -2.16313283       2.22134097       0.00000000
Si      -1.34788348      -0.61686973       2.85441352       0.00000000
Si       3.05170347       1.03770559      -0.35424521       0.00000000
Si      -1.04353741       2.48859074      -1.80186002       0.00000000
