10
Lattice="16.290000149 0.0 0.0 0.0 16.290000149 0.0 0.0 0.0 29.1751946751" Properties=species:S:1:pos:R:3:initial_magmoms:R:1 pbc="T T T"
Si       1.27184160      -1.36104580      -1.42284507       0.00000000
Si       1.35829589       1.41151222       1.31259201       0.00000000
Si      -1.39142682       1.35552349      -1.35066564       0.00000000
Si      -1.29557645      -1.35843940       1.44542667       0.00000000
Si       2.61967621      -2.69654888      -0.04711794       0.00000000
Si      -0.07775233       2.65566098       2.68073359       0.00000000
Si      -2.72188000      -2.62964585       0.04055352       0.00000000
Si       2.61390955       0.00746082      -2.78564759       0.00000000
Si      -0.03570784       2.70251102      -2.74410211       0.00000000
Si      -0.10720465      -2.72264547      -2.75679332       0.00000000
