10
Lattice="16.290000149 0.0 0.0 0.0 16.290000149 0.0 0.0 0.0 29.1751946751" Properties=species:S:1:pos:R:3:initial_magmoms:R:1 pbc="T T T"
Si      -1.34862870      -1.35360127       1.35615057       0.00000000
Si      -1.37136954       1.35659863      -1.33636979       0.00000000
Si       1.32918505      -1.35005005      -1.39151091       0.00000000
Si       1.31405490       1.36689391       1.39314472       0.00000000
Si       0.02319815       2.69348636      -2.67023052       0.00000000
Si       2.68076800      -2.70909218      -0.03264704       0.00000000
Si      -2.69227678       0.01174509       2.70702044       0.00000000
Si       2.68953202       2.71495658       0.04236238       0.00000000
Si      -2.71925302      -2.70117524      -0.00008753       0.00000000
Si       2.70297127       0.01746288       2.72268752       0.00000000
