10
Lattice="16.290000149 0.0 0.0 0.0 16.290000149 0.0 0.0 0.0 29.1751946751" Properties=species:S:1:pos:R:3:initial_magmoms:R:1 pbc="T T T"
Si       1.38590434      -1.34977312      -1.35451676       0.00000000
Si      -1.35078310      -1.38497581       1.35518779       0.00000000
Si       1.40926420       1.36405945       1.31775602       0.00000000
Si      -1.33110478       1.31543380      -1.44283008       0.00000000
Si      -2.69009804      -2.67224420      -0.07565128       0.00000000
Si       2.69957882      -0.04963563       2.67688246       0.00000000
H       -1.10842048       2.94425463       2.13792909       0.00000000
Si       0.07617204       2.43297668       2.93899241       0.00000000
Si       2.72961758       2.69078222      -0.12236077       0.00000000
Si       0.04209336      -2.67669137      -2.76186980       0.00000000
