10
Lattice="16.290000149 0.0 0.0 0.0 16.290000149 0.0 0.0 0.0 29.1751946751" Properties=species:S:1:pos:R:3:initial_magmoms:R:1 pbc="T T T"
Si      -1.43483950       1.34199953      -1.26489057       0.00000000
Si      -1.37930689      -1.34446258       1.33438588       0.00000000
Si       1.34643367       1.38781027       1.33884968       0.00000000
Si       1.36405945      -1.32755356      -1.39229864       0.00000000
Si      -0.09987399       2.68534136      -2.58932187       0.00000000
Si      -0.00987174      -2.69265557       2.67495690       0.00000000
Si       2.70586676      -2.67731039      -0.03334725       0.00000000
Si       2.70422147       0.03486060       2.69380407       0.00000000
Si      -0.04789260      -2.79406083      -2.60906180       0.00000000
Si      -2.73017144       0.03225420       2.68283420       0.00000000
