10
Lattice="16.290000149 0.0 0.0 0.0 16.290000149 0.0 0.0 0.0 29.1751946751" Properties=species:S:1:pos:R:3:initial_magmoms:R:1 pbc="T T T"
H       -0.07125246      -1.07427664      -1.06177286       0.00000000
Si       2.19699485       0.18259461       0.65778394       0.00000000
Si      -1.62010567      -0.67513906       1.56145642       0.00000000
Si      -0.44952255       2.13439727      -0.88911406       0.00000000
H       -1.89206723       2.42056370      -0.44853944       0.00000000
H        1.07923857       0.72977572      -2.98832766       0.00000000
Si      -3.15543819      -1.39473352      -0.04962701       0.00000000
H       -1.29150379      -3.24125391       0.67348019       0.00000000
Si       2.99307576      -2.08062398       0.44282110       0.00000000
Si       3.50946876      -0.08522928      -1.25394987       0.00000000
