10
Lattice="16.290000149 0.0 0.0 0.0 16.290000149 0.0 0.0 0.0 29.1751946751" Properties=species:S:1:pos:R:3:initial_magmoms:R:1 pbc="T T T"
Si       1.35106818      -1.23828436       1.46260998       0.00000000
Si       1.30540731       1.42578226      -1.35238697       0.00000000
Si      -1.17339624       1.58855471       1.29234442       0.00000000
Si      -1.46801409      -1.38303730      -1.33925814       0.00000000
Si      -0.53263413       2.60569467      -2.27198911       0.00000000
Si       2.76820045      -2.47127447       0.12031850       0.00000000
Si      -1.45561740       3.41845653      -0.27450941       0.00000000
Si      -0.01267199      -2.59750568      -2.68254245       0.00000000
Si      -2.65148260       0.28017171       2.66455302       0.00000000
Si       0.01142906      -2.70383051       2.69703085       0.00000000
