10
Lattice="16.290000149 0.0 0.0 0.0 16.290000149 0.0 0.0 0.0 29.1751946751" Properties=species:S:1:pos:R:3:initial_magmoms:R:1 pbc="T T T"
Si      -1.36461331      -1.34785416       1.34964451       0.00000000
Si      -1.36273996       1.36438525      -1.33628227       0.00000000
Si       1.36000324       1.34356663       1.36274417       0.00000000
Si       1.36207207      -1.36260964      -1.34523905       0.00000000
Si       0.00900837      -2.69428457       2.68700625       0.00000000
Si       2.71168229       0.02508660      -2.68079194       0.00000000
Si       0.00710244       2.72393237      -2.67364402       0.00000000
Si      -2.74660806       0.01194057      -2.66025260       0.00000000
Si      -0.00061902       2.69516423       2.71530619       0.00000000
Si      -2.71453304      -2.71816571      -0.00125453       0.00000000
