10
Lattice="16.290000149 0.0 0.0 0.0 16.290000149 0.0 0.0 0.0 29.1751946751" Properties=species:S:1:pos:R:3:initial_magmoms:R:1 pbc="T T T"
H        1.31289256      -0.45872640       0.60445168       0.00000000
Si      -1.25732737       0.24733107       1.93787478       0.00000000
Si       0.26935515       2.02986434      -1.19740834       0.00000000
Si      -0.97161706      -1.99767530      -0.87478904       0.00000000
H        1.88348240      -0.58347523      -1.72600452       0.00000000
Si       3.06807492      -1.09475317      -0.92494120       0.00000000
H       -0.88832629      -2.82230769       1.69983437       0.00000000
Si      -1.92547802       2.75529063      -0.73915356       0.00000000
Si      -3.31973913      -0.44676954       1.03122643       0.00000000
H        1.07535178       0.16555527      -3.37557002       0.00000000
