10
Lattice="16.290000149 0.0 0.0 0.0 16.290000149 0.0 0.0 0.0 29.1751946751" Properties=species:S:1:pos:R:3:initial_magmoms:R:1 pbc="T T T"
Si       1.18459252      -0.51127794       0.80106332       0.00000000
H       -0.80813062       0.74903050      -1.64956551       0.00000000
H        0.63091171       1.66003247      -1.10247226       0.00000000
H       -0.57058984       0.12474882       2.33045620       0.00000000
Si      -1.88348240       0.58347523       1.72600452       0.00000000
Si      -1.65214811      -0.18482634      -2.46011077       0.00000000
Si       2.51768468      -1.58019517      -0.82017307       0.00000000
Si      -1.61412724       2.61333956       0.52859618       0.00000000
Si       0.49360329      -2.37197063       2.22244963       0.00000000
Si      -2.85509946      -1.41420007       0.85121548       0.00000000
