10
Lattice="16.290000149 0.0 0.0 0.0 16.290000149 0.0 0.0 0.0 29.1751946751" Properties=species:S:1:pos:R:3:initial_magmoms:R:1 pbc="T T T"
Si      -1.33470943      -1.37741725      -1.34471390       0.00000000
Si       1.34221619      -1.35708733       1.36534076       0.00000000
Si       1.33131818       1.35676153      -1.38424629       0.00000000
Si      -1.38846024       1.36081774       1.32324095       0.00000000
Si      -2.66492837       0.03155373      -2.65503024       0.00000000
Si      -0.03689522       2.71279001       2.68560585       0.00000000
Si       2.69044176       2.71031393      -0.02873757       0.00000000
Si       2.69102820       0.00384444       2.71553959       0.00000000
Si       2.70173073      -2.71197551       0.01187430       0.00000000
Si      -2.71974422      -2.70904331       0.02316510       0.00000000
