10
Lattice="16.290000149 0.0 0.0 0.0 16.290000149 0.0 0.0 0.0 29.1751946751" Properties=species:S:1:pos:R:3:initial_magmoms:R:1 pbc="T T T"
Si       1.38914605       1.27262368       1.38235136       0.00000000
Si      -1.63280699       1.18798084      -1.20749858       0.00000000
Si       1.25160958      -1.34482259      -1.49163580       0.00000000
Si      -1.33774133      -1.40253643       1.35772749       0.00000000
Si      -2.96302071      -0.78885955      -1.69311970       0.00000000
Si       2.56745063      -2.67362266      -0.00213883       0.00000000
Si      -2.68079955      -2.61876136      -0.12626587       0.00000000
Si      -0.02865411       2.65753433       2.66508255       0.00000000
Si       2.58918149      -0.10311570       2.84687611       0.00000000
Si       3.26339202       2.07456410       0.18603184       0.00000000
