10
Lattice="16.290000149 0.0 0.0 0.0 16.290000149 0.0 0.0 0.0 29.1751946751" Properties=species:S:1:pos:R:3:initial_magmoms:R:1 pbc="T T T"
Si       0.19391616      -1.38727270      -0.60118406       0.00000000
Si      -0.74005471       1.77997574       1.91917640       0.00000000
Si      -0.55042282       1.24885657      -2.40955015       0.00000000
Si      -2.57654045       0.89904511       0.73239950       0.00000000
Si      -2.48521871       0.22235850      -1.49975088       0.00000000
Si       1.16654320       2.56968236       0.79506490       0.00000000
Si       2.01266210      -0.82351978       2.05721591       0.00000000
Si       0.97560811      -2.67766877       1.10413232       0.00000000
Si       2.87503842       0.90316648       0.66907270       0.00000000
Si      -1.68555890      -1.93033081      -1.87342678       0.00000000
