10
Lattice="16.290000149 0.0 0.0 0.0 16.290000149 0.0 0.0 0.0 29.1751946751" Properties=species:S:1:pos:R:3:initial_magmoms:R:1 pbc="T T T"
Si       1.30165246       1.23523813      -1.50188067       0.00000000
Si       1.44694297      -1.35340579       1.28152043       0.00000000
Si      -1.50304573       1.33441165       1.25076977       0.00000000
Si      -1.43523046      -1.40942710      -1.31726004       0.00000000
Si       2.50523912      -2.81818632      -0.19690339       0.00000000
Si      -2.82034474      -0.15353325       2.51708992       0.00000000
Si      -0.11741832       2.60825708      -2.75492611       0.00000000
Si       0.13144401      -2.70881525       2.66804238       0.00000000
Si       2.48543048      -0.21587508      -2.91358082       0.00000000
Si       3.15859845       2.16624422      -0.39867904       0.00000000
