10
Lattice="16.290000149 0.0 0.0 0.0 16.290000149 0.0 0.0 0.0 29.1751946751" Properties=species:S:1:pos:R:3:initial_magmoms:R:1 pbc="T T T"
Si      -0.64270567       0.84305638      -1.07921963       0.00000000
Si       2.14637042       0.25285338       1.30990789       0.00000000
Si       2.25551342      -1.47843154      -0.49609501       0.00000000
Si       0.38916810       1.22267854       2.57167671       0.00000000
Si      -2.07418943       2.06928614       0.20708553       0.00000000
Si       0.42332823      -2.66395911      -1.50433139       0.00000000
Si      -2.08186202      -0.48568635      -2.29153649       0.00000000
Si      -0.68333293      -2.30925087       2.13498240       0.00000000
Si      -1.37578825      -0.26264367       2.90549929       0.00000000
Si       0.85923235       2.20390670      -2.24050908       0.00000000
