10
Lattice="16.290000149 0.0 0.0 0.0 16.290000149 0.0 0.0 0.0 29.1751946751" Properties=species:S:1:pos:R:3:initial_magmoms:R:1 pbc="T T T"
Si      -1.36943515       1.34819299      -1.34057102       0.00000000
Si      -1.37528326      -1.34237746       1.34200060       0.00000000
Si       1.35459496      -1.35337321      -1.36633272       0.00000000
Si       1.35539317       1.36285399       1.35985582       0.00000000
Si       0.00987174       2.69265557      -2.67495690       0.00000000
Si      -0.01342296      -2.73672003       2.64689036       0.00000000
Si       2.71733492      -2.69223203      -0.00180886       0.00000000
Si      -2.72782568       0.02746494       2.69263707       0.00000000
Si       2.71573850       0.01534518      -2.70830415       0.00000000
Si      -2.72987823      -2.69632082      -0.01779687       0.00000000
