10
Lattice="16.290000149 0.0 0.0 0.0 16.290000149 0.0 0.0 0.0 29.1751946751" Properties=species:S:1:pos:R:3:initial_magmoms:R:1 pbc="T T T"
Si      -1.16107302       0.16112439      -2.01979873       0.00000000
Si       0.21808075       1.85072321       1.43635318       0.00000000
Si       2.30711688      -0.18055836      -0.60305127       0.00000000
Si      -1.15125015      -2.05899086       0.59391944       0.00000000
H       -2.70994252       0.59176684       0.01388739       0.00000000
H       -2.19270244      -0.94783366      -1.80550692       0.00000000
Si      -3.16182713      -0.69240646       0.67642689       0.00000000
Si       1.65320370       0.64708768       2.87857058       0.00000000
Si       1.88628102      -1.99506890      -2.08360488       0.00000000
Si       0.32634246      -0.91390159      -3.44649492       0.00000000
