10
Lattice="16.290000149 0.0 0.0 0.0 16.290000149 0.0 0.0 0.0 29.1751946751" Properties=species:S:1:pos:R:3:initial_magmoms:R:1 pbc="T T T"
Si       2.25995407      -0.47526075       0.09181434       0.00000000
Si      -0.26306721       0.73306467       2.21077955       0.00000000
Si      -0.55895878       1.73702552      -1.51778115       0.00000000
Si      -1.51325956      -1.85233592      -0.42441156       0.00000000
H       -1.30696300       1.84816568       2.22866395       0.00000000
Si       2.55824678      -1.31271337      -2.04521032       0.00000000
Si      -1.09675684      -1.19809693       3.22861457       0.00000000
Si      -2.65507454      -1.98242786       1.63599904       0.00000000
Si      -2.55217061       2.61930170      -0.53979945       0.00000000
Si      -3.03759633      -0.85294441      -1.92780934       0.00000000
