10
Lattice="16.290000149 0.0 0.0 0.0 16.290000149 0.0 0.0 0.0 29.1751946751" Properties=species:S:1:pos:R:3:initial_magmoms:R:1 pbc="T T T"
Si      -1.34368066      -1.34645974      -1.38833081       0.00000000
Si       1.30818475       1.34676599      -1.42316600       0.00000000
Si       1.42581484      -1.36547017       1.29497019       0.00000000
Si      -1.41876127       1.35556259       1.33625309       0.00000000
Si       0.07894134      -2.65604543       2.66457053       0.00000000
Si      -2.68080134      -2.69706365      -0.01846790       0.00000000
Si       2.60117093       2.78430963      -0.11060316       0.00000000
Si       2.68148063      -0.04452709       2.76172393       0.00000000
Si      -0.10660176       2.82423642       2.61573125       0.00000000
Si       2.73346202      -0.01519531      -2.72187061       0.00000000
