10
Lattice="16.290000149 0.0 0.0 0.0 16.290000149 0.0 0.0 0.0 29.1751946751" Properties=species:S:1:pos:R:3:initial_magmoms:R:1 pbc="T T T"
Si       2.23925600      -0.51131052       0.27876899       0.00000000
Si      -1.55727514      -1.68789651      -0.46102643       0.00000000
Si      -0.73484191       0.62682292       2.18168984       0.00000000
Si      -0.07814313       1.45430605      -1.93451963       0.00000000
H        0.25045875      -1.11180880      -2.82249586       0.00000000
Si      -2.83388988      -0.58634227      -2.05282505       0.00000000
Si      -1.30781008       3.30517587      -1.26847911       0.00000000
Si       1.29435454      -2.22690981      -2.84038025       0.00000000
Si       3.16223926      -1.32407239      -1.71871072       0.00000000
H       -0.01379763       3.85563127      -0.34552183       0.00000000
