10
Lattice="16.290000149 0.0 0.0 0.0 16.290000149 0.0 0.0 0.0 29.1751946751" Properties=species:S:1:pos:R:3:initial_magmoms:R:1 pbc="T T T"
Si      -0.11626173       2.30538689       0.23436434       0.00000000
Si       1.60072057       0.07232760      -1.78995654       0.00000000
Si       0.28719270      -0.88690906       2.24036320       0.00000000
Si      -2.12757176      -0.97075369      -0.67835245       0.00000000
H        1.09318933      -2.75121813       0.06220152       0.00000000
H        2.53223165      -1.84021616       0.60929477       0.00000000
Si      -1.86276152       1.98674308       1.72626709       0.00000000
Si      -1.90764047      -0.16148277       2.69861798       0.00000000
Si       3.17853741      -1.01325430      -0.46709487       0.00000000
Si      -1.04531302      -2.39155121      -2.17553592       0.00000000
