10
Lattice="16.290000149 0.0 0.0 0.0 16.290000149 0.0 0.0 0.0 29.1751946751" Properties=species:S:1:pos:R:3:initial_magmoms:R:1 pbc="T T T"
Si       1.36062226       1.36163224      -1.34401369       0.00000000
Si      -1.36500427      -1.35505108      -1.34661029       0.00000000
Si       1.35086455      -1.37687968       1.34132958       0.00000000
Si      -1.37499004       1.36428751       1.33202269       0.00000000
Si      -0.02342502       2.69904125      -2.69403748       0.00000000
Si       2.72978048      -0.01731627      -2.66646692       0.00000000
Si       0.00508248      -2.71814942      -2.68143379       0.00000000
Si       2.72779310      -0.03660363       2.67373154       0.00000000
Si      -0.02622690       2.72598491       2.67977081       0.00000000
Si      -2.71324613      -2.70247844       0.03162591       0.00000000
