10
Lattice="16.290000149 0.0 0.0 0.0 16.290000149 0.0 0.0 0.0 29.1751946751" Properties=species:S:1:pos:R:3:initial_magmoms:R:1 pbc="T T T"
Si       1.34410420      -1.33037173      -1.38725133       0.00000000
Si      -1.36273996       1.33885882      -1.36452386       0.00000000
Si      -1.35164647      -1.39134520       1.32735466       0.00000000
Si       1.37062432       1.34757397       1.35623810       0.00000000
Si      -2.73075788      -0.04448799       2.64869922       0.00000000
Si       2.68943015      -2.71122617      -0.03264704       0.00000000
Si      -2.69871545      -0.06587676      -2.70185643       0.00000000
Si      -2.71733492       2.69223203       0.00180886       0.00000000
Si      -0.00159642       2.70757721      -2.70649528       0.00000000
Si       0.02697624       2.71292033       2.70710796       0.00000000
