10
Lattice="16.290000149 0.0 0.0 0.0 16.290000149 0.0 0.0 0.0 29.1751946751" Properties=species:S:1:pos:R:3:initial_magmoms:R:1 pbc="T T T"
Si       1.29298618       1.43754364       1.31256283       0.00000000
Si      -1.35490447       1.36687762      -1.33669072       0.00000000
Si      -1.30818475      -1.34676599       1.42316600       0.00000000
Si       1.42527727      -1.36196130      -1.29870462       0.00000000
Si       2.53485434       0.04880484       2.68370946       0.00000000
Si      -2.65186541      -2.69322572       0.03483518       0.00000000
Si       0.06361245      -2.70467759      -2.67615308       0.00000000
Si      -2.71026506      -0.00104256      -2.67434422       0.00000000
Si       0.02039508       2.70316262      -2.69847211       0.00000000
Si       2.76066633       0.00203625      -2.66754640       0.00000000
