10
Lattice="16.290000149 0.0 0.0 0.0 16.290000149 0.0 0.0 0.0 29.1751946751" Properties=species:S:1:pos:R:3:initial_magmoms:R:1 pbc="T T T"
Si      -0.64707139       0.42907860      -2.13123047       0.00000000
Si      -1.90659791      -0.78970663       1.12411150       0.00000000
Si       0.85561597       1.93748375       1.04043704       0.00000000
Si       1.70849522      -1.66651589      -0.12599220       0.00000000
H       -1.16654320      -2.56968236      -0.79506490       0.00000000
Si       2.16946964       0.67455262       2.51442039       0.00000000
Si      -0.65919115      -2.16106400       2.53774012       0.00000000
Si       3.42943599      -0.72396019       1.14955810       0.00000000
Si       0.84611890      -3.39320214       1.26215101       0.00000000
Si      -2.35488242       2.01671831      -2.14701425       0.00000000
