10
Lattice="16.290000149 0.0 0.0 0.0 16.290000149 0.0 0.0 0.0 29.1751946751" Properties=species:S:1:pos:R:3:initial_magmoms:R:1 pbc="T T T"
H       -1.18459252       0.51127794      -0.80106332       0.00000000
Si       1.33309216      -1.06891723      -1.62123639       0.00000000
H       -1.75518236       0.63602677       1.52939288       0.00000000
Si       1.29652111       1.67373236       1.17514767       0.00000000
Si      -0.69098923      -1.86069269       1.42138631       0.00000000
H       -0.55368082       2.17131041      -1.90353558       0.00000000
H        1.52287066      -1.07655724       2.54565244       0.00000000
Si      -3.06807492       1.09475317       0.92494120       0.00000000
H       -1.99272314       1.26030844      -2.45062883       0.00000000
Si       2.55450008       0.03240081       2.33136063       0.00000000
