10
Lattice="16.290000149 0.0 0.0 0.0 16.290000149 0.0 0.0 0.0 29.1751946751" Properties=species:S:1:pos:R:3:initial_magmoms:R:1 pbc="T T T"
Si       0.97766065      -1.86052979       0.89451147       0.00000000
Si      -1.48569688      -1.01392219      -1.47007971       0.00000000
Si      -1.61034796       0.78833827       1.52323691       0.00000000
Si       1.66086326       1.52311501      -0.73381450       0.00000000
H        0.91171873       2.08116155       1.76559526       0.00000000
H        0.25759377       2.49836474       1.72174494       0.00000000
H       -0.88985755       0.86851765       2.84711972       0.00000000
Si      -1.95196556       2.73846306       0.15101081       0.00000000
Si       0.17430300       3.32299713      -0.85287847       0.00000000
Si      -0.05421312      -2.24015195      -2.75638487       0.00000000
