10
Lattice="16.290000149 0.0 0.0 0.0 16.290000149 0.0 0.0 0.0 29.1751946751" Properties=species:S:1:pos:R:3:initial_magmoms:R:1 pbc="T T T"
Si       1.37914399       1.36348930       1.30445213       0.00000000
Si      -1.31616685       1.39097053      -1.34275916       0.00000000
Si       1.32747211      -1.35873262      -1.36516571       0.00000000
Si      -1.36984240      -1.35954712       1.33736175       0.00000000
Si      -2.62842410       0.02933829      -2.68546580       0.00000000
Si      -0.00594585       2.67788054       2.66276167       0.00000000
Si       2.73732275       0.04660569      -2.62308632       0.00000000
Si       2.70870122      -0.00312768       2.68003338       0.00000000
Si      -0.09133803      -2.78901093      -2.59976659       0.00000000
Si      -0.00710244      -2.72393237       2.67364402       0.00000000
