10
Lattice="16.290000149 0.0 0.0 0.0 16.290000149 0.0 0.0 0.0 29.1751946751" Properties=species:S:1:pos:R:3:initial_magmoms:R:1 pbc="T T T"
Si      -1.42946380       1.44399448       1.12064840       0.00000000
Si      -1.35962857      -1.30797298      -1.38964370       0.00000000
Si       1.34975683       1.39105198      -1.34477225       0.00000000
Si       1.33110478      -1.31543380       1.44283008       0.00000000
H       -0.58544632       2.37785132       1.93119366       0.00000000
Si      -2.70076799      -2.64091853      -0.01651316       0.00000000
Si       0.01376505      -2.66681963      -2.71066734       0.00000000
Si       2.71700912      -2.66520692       0.08831331       0.00000000
Si       2.73284301       0.04728987      -2.68073359       0.00000000
Si      -2.72394866       2.73751824      -0.30654377       0.00000000
