10
Lattice="16.290000149 0.0 0.0 0.0 16.290000149 0.0 0.0 0.0 29.1751946751" Properties=species:S:1:pos:R:3:initial_magmoms:R:1 pbc="T T T"
Si       1.35029440       1.34276842       1.31218356       0.00000000
Si      -1.30992778       1.42767190      -1.29680823       0.00000000
Si       1.43816266      -1.33449310      -1.28090775       0.00000000
Si      -1.37212300      -1.25278246       1.43256041       0.00000000
Si      -2.66093894       0.04137660      -2.61940733       0.00000000
Si       0.07078005      -2.69272073      -2.60966281       0.00000000
Si      -0.01728369      -2.61096122       2.73558295       0.00000000
Si      -2.68232771      -2.68307705       0.10969873       0.00000000
Si      -2.60899013       2.78508504       0.12072696       0.00000000
Si       0.06603966       2.75762010      -2.65228777       0.00000000
