10
Lattice="16.290000149 0.0 0.0 0.0 16.290000149 0.0 0.0 0.0 29.1751946751" Properties=species:S:1:pos:R:3:initial_magmoms:R:1 pbc="T T T"
Si       1.29031462      -1.41369508       1.35912644       0.00000000
Si      -1.33309216       1.06891723       1.62123639       0.00000000
Si       1.32035338       1.32672277      -1.44011678       0.00000000
Si      -1.40926420      -1.36405945      -1.31775602       0.00000000
H       -2.51768468       1.58019517       0.82017307       0.00000000
Si       2.70882340       0.02629206       2.52590083       0.00000000
Si      -2.02408139      -0.79177546       3.04262270       0.00000000
Si      -0.34757973      -2.47195865       2.79154098       0.00000000
H       -1.88677298       3.24022764      -0.28229918       0.00000000
Si       2.60919702       2.73544941      -0.12110623       0.00000000
