10
Lattice="16.290000149 0.0 0.0 0.0 16.290000149 0.0 0.0 0.0 29.1751946751" Properties=species:S:1:pos:R:3:initial_magmoms:R:1 pbc="T T T"
Si      -1.22614831       1.20119480       1.60147895       0.00000000
Si      -1.94178431      -0.85219507      -1.06456959       0.00000000
Si       1.30150585      -1.52819749       1.31949778       0.00000000
Si       1.47808636       1.30838300      -1.37220860       0.00000000
H       -0.86416822      -2.56383425      -1.84502181       0.00000000
Si      -2.64060902       2.54973200       0.35200164       0.00000000
Si       2.65148260      -0.28017171      -2.66455302       0.00000000
Si       2.82114458       2.52460793       0.11178476       0.00000000
Si      -3.67766301       0.69558301      -0.60108195       0.00000000
Si       2.68095284      -0.24197166       2.76594266       0.00000000
