10
Lattice="16.290000149 0.0 0.0 0.0 16.290000149 0.0 0.0 0.0 29.1751946751" Properties=species:S:1:pos:R:3:initial_magmoms:R:1 pbc="T T T"
Si      -1.34180731       1.34975683      -1.35895139       0.00000000
Si       1.34947990       1.35019666       1.37021302       0.00000000
Si      -1.36114354      -1.36871839       1.34197143       0.00000000
Si       1.33970590      -1.30109860      -1.42975959       0.00000000
Si      -2.75375937      -0.11675043      -2.57571456       0.00000000
Si       0.11403000       2.78197641      -2.58208642       0.00000000
Si       2.68718213      -2.68537394      -0.06651944       0.00000000
Si      -2.70586676       2.67731039       0.03334725       0.00000000
Si       0.00159642      -2.70757721       2.70649528       0.00000000
Si      -2.71573850      -0.01534518       2.70830415       0.00000000
