10
Lattice="16.290000149 0.0 0.0 0.0 16.290000149 0.0 0.0 0.0 29.1751946751" Properties=species:S:1:pos:R:3:initial_magmoms:R:1 pbc="T T T"
H        1.32543586       0.62879401       0.31246633       0.00000000
Si      -0.45528921       0.41936976      -2.21223831       0.00000000
Si      -1.42557049       1.33719724       1.26850829       0.00000000
Si      -0.45453987      -2.21434859       0.60663982       0.00000000
H        2.29022741      -1.18719892      -0.18088621       0.00000000
H        2.95106385      -0.31249107       1.40469810       0.00000000
Si       0.60271372      -2.17947170       2.70637858       0.00000000
Si       1.37376829       1.70860925      -2.85260466       0.00000000
Si       0.09055611       2.66719430       2.42772630       0.00000000
Si      -2.76165676      -2.03379023       1.20969110       0.00000000
