10
Lattice="16.290000149 0.0 0.0 0.0 16.290000149 0.0 0.0 0.0 29.1751946751" Properties=species:S:1:pos:R:3:initial_magmoms:R:1 pbc="T T T"
Si       1.36697536      -1.35703846       1.32811321       0.00000000
Si       1.36855549       1.34359921      -1.34281751       0.00000000
Si      -1.34017831      -1.36352188      -1.36449468       0.00000000
Si      -1.31797504       1.36303318       1.39083988       0.00000000
Si      -0.01412343       2.68946273      -2.67834122       0.00000000
Si      -0.00899208      -2.68698665       2.68359276       0.00000000
Si       2.71573850       0.00465894       2.67586133       0.00000000
Si      -2.69920415      -2.71485884      -0.00221731       0.00000000
Si      -2.69176125      -0.00447975      -2.72335855       0.00000000
Si       2.71854038      -0.02228472      -2.69794695       0.00000000
