10
Lattice="16.290000149 0.0 0.0 0.0 16.290000149 0.0 0.0 0.0 29.1751946751" Properties=species:S:1:pos:R:3:initial_magmoms:R:1 pbc="T T T"
Si      -1.45793872      -1.29779173       1.30205976       0.00000000
Si       1.37003788      -1.38701206      -1.31113325       0.00000000
Si      -1.36314721       1.32605488      -1.38022011       0.00000000
Si       1.38324907       1.34982199       1.34054184       0.00000000
Si      -0.05580954       2.72013680       2.57240609       0.00000000
Si      -0.21607056      -2.68653053       2.67320639       0.00000000
Si       2.72438849       2.68276754      -0.03258869       0.00000000
Si       2.72383463      -0.03992679      -2.68540162       0.00000000
Si       0.00974142      -2.73329912      -2.67804947       0.00000000
Si      -0.00941562       2.67700088      -2.74229325       0.00000000
