10
Lattice="16.290000149 0.0 0.0 0.0 16.290000149 0.0 0.0 0.0 29.1751946751" Properties=species:S:1:pos:R:3:initial_magmoms:R:1 pbc="T T T"
Si       0.90098362      -0.74170000      -0.97774830       0.00000000
Si      -1.07761609       1.71163919       0.78045221       0.00000000
Si      -1.91156636      -0.28496097       1.87653977       0.00000000
Si      -1.33542163       2.22883040      -1.51915239       0.00000000
Si       2.30299226      -1.91150120       0.48349133       0.00000000
Si      -0.69014215      -1.87113458      -2.31916540       0.00000000
Si       2.04763673       0.90062524      -2.15878935       0.00000000
Si       0.86416822       2.56383425       1.84502181       0.00000000
Si      -0.48503475      -1.65146393       3.21235523       0.00000000
Si      -3.21940902      -1.73446148       0.50394314       0.00000000
