10
Lattice="16.290000149 0.0 0.0 0.0 16.290000149 0.0 0.0 0.0 29.1751946751" Properties=species:S:1:pos:R:3:initial_magmoms:R:1 pbc="T T T"
Si       1.43915635       1.32874273       1.21231686       0.00000000
Si      -1.24186816       1.38873880      -1.37114662       0.00000000
Si       1.52060635      -1.31725502      -1.19714576       0.00000000
Si      -1.16155846      -1.44009792       1.50118047       0.00000000
H        2.08186202       0.48568635       2.29153649       0.00000000
Si       2.50519025      -2.17827276       0.78720510       0.00000000
Si       0.75869047      -2.49691656       2.27910786       0.00000000
Si       0.00767259       2.55497249       2.49862202       0.00000000
Si      -2.41722425      -2.76104100       0.03442673       0.00000000
Si      -2.53485434      -0.04880484      -2.68370946       0.00000000
