10
Lattice="10.86 0.0 0.0 0.0 10.86 0.0 0.0 0.0 10.86" Properties=species:S:1:pos:R:3:initial_magmoms:R:1 pbc="T T T"
Si       0.91473780       1.89615600      -1.07271822       0.00000000
Si       0.49657350      -1.16498478      -2.04565476       0.00000000
Si       1.82024460       0.21385512       1.68338688       0.00000000
Si      -2.21842650      -1.16498478       0.66934524       0.00000000
Si       1.85407350      -2.52248478      -0.68815476       0.00000000
Si      -0.86092650      -2.52248478       2.02684524       0.00000000
Si      -2.21842650       1.55001522      -2.04565476       0.00000000
Si       3.21157350      -1.16498478       0.66934524       0.00000000
Si      -0.87059190       2.75584446       2.00969730       0.00000000
Si       0.49657350      -1.16498478       3.38434524       0.00000000
