10
Lattice="10.86 0.0 0.0 0.0 10.86 0.0 0.0 0.0 10.86" Properties=species:S:1:pos:R:3:initial_magmoms:R:1 pbc="T T T"
Si      -0.91473780      -1.89615600       1.07271822       0.00000000
Si      -0.18489150       2.21764458      -1.14235254       0.00000000
Si       2.47092150       0.00987174      -0.82614192       0.00000000
Si      -1.57980420       0.99304926      -2.31370128       0.00000000
Si      -0.41816430      -3.06114078      -0.97293654       0.00000000
Si      -3.13316430      -0.34614078      -0.97293654       0.00000000
Si       0.90550680      -1.68230088       2.75610510       0.00000000
Si      -1.78532970       0.85968846       3.08241552       0.00000000
Si      -0.41816430      -0.34614078      -3.68793654       0.00000000
Si       3.48544098      -1.76101416       0.31900164       0.00000000
