10
Lattice="16.2900001489832 0.0 0.0 0.0 16.2900001489832 0.0 0.0 0.0 29.04414162538098" Properties=species:S:1:pos:R:3:initial_magmoms:R:1 pbc="T T T"
Si       1.64968832       1.02219751      -1.33071544       0.00000000
Si      -0.79322527      -1.88677298      -1.21729806       0.00000000
Si       0.30059937      -0.73454869       2.25731069       0.00000000
Si      -1.78769720       1.63848080      -0.06363571       0.00000000
Si      -1.92205712      -0.22069692       2.84676154       0.00000000
Si      -2.22839057      -0.69545269      -2.66552610       0.00000000
Si       0.34702587       2.28377657      -2.75271661       0.00000000
Si       3.39610665      -1.24698322      -0.43967022       0.00000000
Si       3.13724226       2.19699974       0.07528242       0.00000000
Si      -3.55161099       0.65487430      -1.28340253       0.00000000
