10
Lattice="16.2900001489832 0.0 0.0 0.0 16.2900001489832 0.0 0.0 0.0 29.04414162538098" Properties=species:S:1:pos:R:3:initial_magmoms:R:1 pbc="T T T"
H        1.42538153      -0.47493495      -0.13302217       0.00000000
Si      -0.31036686       2.22361760      -0.58921850       0.00000000
Si      -0.56162545      -0.25614396       2.25606179       0.00000000
Si      -1.36941886      -1.30460095      -1.38096180       0.00000000
H        1.55915501       0.97410943      -2.28554159       0.00000000
H        2.59601352       1.64835254      -0.57966298       0.00000000
Si       0.16909672      -2.42400089       2.64670549       0.00000000
Si      -2.57265692       2.60099174      -0.16485455       0.00000000
Si       0.89859550       3.52336413       0.91245075       0.00000000
Si      -2.68424342      -2.64298736       0.01048494       0.00000000
