10
Lattice="16.2900001489832 0.0 0.0 0.0 16.2900001489832 0.0 0.0 0.0 29.04414162538098" Properties=species:S:1:pos:R:3:initial_magmoms:R:1 pbc="T T T"
Si      -1.42538153       0.47493495       0.13302217       0.00000000
H        1.17063199       2.12328749      -0.44664081       0.00000000
H        0.13377348       1.44904438      -2.15251942       0.00000000
Si       2.54404190      -0.74826487      -1.18322929       0.00000000
Si       1.20291877       0.51398208      -2.68603126       0.00000000
Si       1.67594780      -2.62443305      -0.02483274       0.00000000
Si      -1.98700698       0.21879099       2.38908396       0.00000000
Si      -2.79480039      -0.82966600      -1.24793963       0.00000000
Si      -1.73574839       2.69855255      -0.45619633       0.00000000
Si       0.99406468      -2.25520391       2.18920218       0.00000000
