10
Lattice="16.2900001489832 0.0 0.0 0.0 16.2900001489832 0.0 0.0 0.0 29.04414162538098" Properties=species:S:1:pos:R:3:initial_magmoms:R:1 pbc="T T T"
Si      -1.35505108      -1.36329382       1.27750657       0.00000000
Si       1.40061421      -1.37303524      -1.24138437       0.00000000
Si      -1.25030638       1.32189767      -1.47828872       0.00000000
Si       1.47313729       1.41630963       1.19862268       0.00000000
Si       2.17688159       0.33480788      -2.63277912       0.00000000
Si       0.61525702       2.17989524      -2.63454210       0.00000000
Si      -2.69532713       0.07366338       2.53450797       0.00000000
Si       0.08200386      -2.70860348       2.56468484       0.00000000
Si      -2.66965409      -2.59947677      -0.24156884       0.00000000
Si       0.10567323       2.75897217       2.55289292       0.00000000
