10
Lattice="16.2900001489832 0.0 0.0 0.0 16.2900001489832 0.0 0.0 0.0 29.04414162538098" Properties=species:S:1:pos:R:3:initial_magmoms:R:1 pbc="T T T"
Si       1.25030638      -1.32189767       1.47828872       0.00000000
Si       1.86556340       0.85799757      -1.15625338       0.00000000
Si      -1.36580248       1.45874019       1.26229906       0.00000000
Si      -1.40535460      -1.20084668      -1.49106814       0.00000000
Si       0.92766664       1.41902517      -3.20049014       0.00000000
Si      -2.53832411       0.48366965      -2.71522062       0.00000000
Si       3.42718797      -0.98708979      -1.15449040       0.00000000
Si      -2.77804776       0.07203601       2.55780138       0.00000000
Si       2.65092059      -2.69493292       0.23690435       0.00000000
Si       2.72344367       0.09441195       2.67691140       0.00000000
