10
Lattice="16.2900001489832 0.0 0.0 0.0 16.2900001489832 0.0 0.0 0.0 29.04414162538098" Properties=species:S:1:pos:R:3:initial_magmoms:R:1 pbc="T T T"
Si       0.31036686      -2.22361760       0.58921850       0.00000000
Si       1.20896236       1.29974653       1.50166925       0.00000000
Si      -2.26229006       0.37737414       0.42436395       0.00000000
Si       0.09755592       0.67539970      -2.23395920       0.00000000
H        1.86952187      -1.24950817      -1.69632309       0.00000000
H       -0.92713233       1.79921423      -2.10096607       0.00000000
H        2.90638038      -0.57526507       0.00955552       0.00000000
H        1.73574839      -2.69855255       0.45619633       0.00000000
Si       3.36450405       0.48860226       0.96621146       0.00000000
Si      -1.05905201      -3.52821855      -0.79174330       0.00000000
