10
Lattice="16.2900001489832 0.0 0.0 0.0 16.2900001489832 0.0 0.0 0.0 29.04414162538098" Properties=species:S:1:pos:R:3:initial_magmoms:R:1 pbc="T T T"
Si      -1.13343964      -0.85629852       0.52154565       0.00000000
H       -0.37705975      -0.88048917      -2.44043400       0.00000000
H        2.73215231       0.60418959      -0.17696595       0.00000000
Si      -1.45121747       2.72509059       0.08010374       0.00000000
Si      -0.32171284      -2.96472953       0.97515706       0.00000000
H        2.25205342      -2.19043324      -0.19642553       0.00000000
Si      -1.85208179      -0.03417642       2.56953695       0.00000000
Si      -0.98029311       2.23443579      -2.11336792       0.00000000
Si      -2.92083612      -1.30883472      -0.94509637       0.00000000
H        1.63951684       2.83330506      -0.84866982       0.00000000
