10
Lattice="16.2900001489832 0.0 0.0 0.0 16.2900001489832 0.0 0.0 0.0 29.04414162538098" Properties=species:S:1:pos:R:3:initial_magmoms:R:1 pbc="T T T"
Si       0.61145656       2.16922529       0.25091234       0.00000000
Si       1.48839614      -1.49450326       1.05589977       0.00000000
Si       0.15435915      -0.58934125      -2.30566918       0.00000000
Si      -2.34332141      -0.53302509       0.04130077       0.00000000
Si      -2.18092640      -0.18161721      -2.27415629       0.00000000
Si       0.24595783      -3.26731791       0.19680310       0.00000000
Si      -2.01185249      -2.75625174       0.63040309       0.00000000
Si       1.94700851       2.03163995       2.16009995       0.00000000
Si       0.76583689      -2.87228541      -2.04662448       0.00000000
Si       3.56323717      -1.17887473      -0.02982833       0.00000000
