10
Lattice="16.2900001489832 0.0 0.0 0.0 16.2900001489832 0.0 0.0 0.0 29.04414162538098" Properties=species:S:1:pos:R:3:initial_magmoms:R:1 pbc="T T T"
Si      -2.14024538      -0.81502129       0.01768788       0.00000000
Si      -0.19864026       2.16367040       0.77237086       0.00000000
Si       0.35419347       0.10093284      -2.27772872       0.00000000
Si       1.42278164      -1.44414109       1.10768547       0.00000000
H       -1.95150944      -2.25114770      -0.42378307       0.00000000
Si      -0.47822553       2.27136359      -2.72736108       0.00000000
Si       2.76978873       0.04766454       2.31455669       0.00000000
Si       2.00326603       3.02539512       0.26032264       0.00000000
Si      -0.89132365      -1.78566095      -3.05707017       0.00000000
Si       0.09648567      -2.73997803       2.50340170       0.00000000
