10
Lattice="16.2900001489832 0.0 0.0 0.0 16.2900001489832 0.0 0.0 0.0 29.04414162538098" Properties=species:S:1:pos:R:3:initial_magmoms:R:1 pbc="T T T"
Si       1.37935576       1.30974859      -1.35825509       0.00000000
Si       1.41928255      -1.32237334       1.31890028       0.00000000
Si      -1.30880377       1.39253437       1.40091513       0.00000000
Si      -1.49866372      -1.23471685      -1.35935877       0.00000000
Si       1.91267408      -0.26832888      -3.18794888       0.00000000
Si      -2.67986792       0.37714608      -2.64360358       0.00000000
Si       0.04080645      -2.63135630       2.72128504       0.00000000
Si      -2.79761205      -2.57017106       0.07503844       0.00000000
Si       2.72204273       0.07582995       2.71922291       0.00000000
Si       2.68477121       2.76789909       0.03794036       0.00000000
