10
Lattice="16.2900001489832 0.0 0.0 0.0 16.2900001489832 0.0 0.0 0.0 29.04414162538098" Properties=species:S:1:pos:R:3:initial_magmoms:R:1 pbc="T T T"
Si       1.36687762       1.34840476       1.35601288       0.00000000
Si       1.35971002      -1.36800163      -1.34610883       0.00000000
Si      -1.34485354      -1.37930689       1.35453163       0.00000000
Si      -1.36397800       1.37681452      -1.34279780       0.00000000
Si       0.00289962       2.71937117       2.68402722       0.00000000
Si      -2.73088820      -0.03122793       2.67891545       0.00000000
Si      -2.71581995       0.01813077      -2.69436693       0.00000000
Si       2.71629236       2.70125669      -0.00368861       0.00000000
Si      -2.68970708      -2.73346203      -0.00731912       0.00000000
Si       2.70573644      -2.71775846       0.01870443       0.00000000
