10
Lattice="16.2900001489832 0.0 0.0 0.0 16.2900001489832 0.0 0.0 0.0 29.04414162538098" Properties=species:S:1:pos:R:3:initial_magmoms:R:1 pbc="T T T"
H       -0.46594287      -0.23798061       1.40039233       0.00000000
Si       2.27647865      -0.44787726       0.15497954       0.00000000
Si      -1.21917619      -1.27620748      -1.54967922       0.00000000
Si      -0.46231020       2.29229624      -0.34010690       0.00000000
H       -2.42830145       0.15143184       1.72725510       0.00000000
H       -1.08273115       1.58605957       2.65358896       0.00000000
Si      -3.16443027      -1.01411767       1.13365094       0.00000000
Si      -3.45556515      -0.63157960      -1.13623586       0.00000000
Si       3.24193809       0.54103978      -1.78275846       0.00000000
Si      -0.08920404       2.72642474      -2.58388302       0.00000000
