10
Lattice="16.2900001489832 0.0 0.0 0.0 16.2900001489832 0.0 0.0 0.0 29.04414162538098" Properties=species:S:1:pos:R:3:initial_magmoms:R:1 pbc="T T T"
Si      -1.26557060       1.36257706      -1.45063870       0.00000000
Si       1.40026838      -1.36187659      -1.33727941       0.00000000
Si       1.45539699       1.37974672       1.31526395       0.00000000
Si      -1.59428651      -1.27068517       1.29144776       0.00000000
Si      -2.58310581       2.77114080      -0.11591517       0.00000000
Si      -2.41854423       0.16177599       2.94339140       0.00000000
Si       2.78749547       2.66206295      -0.15466005       0.00000000
Si       2.83577903      -2.62544303       0.07934860       0.00000000
Si      -2.58434385       0.03658734      -2.88219539       0.00000000
Si      -0.59808784      -3.33093036       1.90788062       0.00000000
