10
Lattice="16.2900001489832 0.0 0.0 0.0 16.2900001489832 0.0 0.0 0.0 29.04414162538098" Properties=species:S:1:pos:R:3:initial_magmoms:R:1 pbc="T T T"
Si       1.33144687      -1.33557150      -1.39760409       0.00000000
Si       1.36519975       1.31996242       1.39191144       0.00000000
Si      -1.30152866      -1.39518801       1.38046805       0.00000000
Si      -1.34520215       1.36223497      -1.37797026       0.00000000
Si      -0.04841388       2.65140929       2.70642025       0.00000000
Si       2.68819211      -2.67429674      -0.02294487       0.00000000
Si      -2.63757403      -0.01715337       2.73645189       0.00000000
Si      -2.69108278      -2.69552261      -0.02050516       0.00000000
Si       2.68315850       2.71120988       0.00531508       0.00000000
Si      -0.03503979      -2.68442912      -2.75077065       0.00000000
