10
Lattice="16.2900001489832 0.0 0.0 0.0 16.2900001489832 0.0 0.0 0.0 29.04414162538098" Properties=species:S:1:pos:R:3:initial_magmoms:R:1 pbc="T T T"
Si      -1.26091117       0.83223982      -0.08690007       0.00000000
H       -1.34557030      -1.43462773      -0.92633385       0.00000000
H        0.61678828      -1.82404019      -1.25319662       0.00000000
Si      -0.46874475       2.98116777       0.44765735       0.00000000
Si      -2.59043582       0.01808190       1.72725510       0.00000000
Si       0.62042095       0.70623667      -2.99369585       0.00000000
Si      -1.62680086       1.27400833      -2.41748913       0.00000000
Si       1.08273115      -1.58605957      -2.65358896       0.00000000
Si      -0.62465635      -2.29071611       2.36035930       0.00000000
Si      -0.83815309      -0.17177805       3.35512115       0.00000000
