10
Lattice="16.2900001489832 0.0 0.0 0.0 16.2900001489832 0.0 0.0 0.0 29.04414162538098" Properties=species:S:1:pos:R:3:initial_magmoms:R:1 pbc="T T T"
Si      -1.28027998      -1.20816415      -1.57619652       0.00000000
Si       2.24722181      -0.56777167      -0.57620673       0.00000000
Si       0.36588969      -0.44176851       2.33058906       0.00000000
Si      -0.72032752       2.27120069      -0.43537168       0.00000000
H       -2.06923727       1.23292495       1.89428796       0.00000000
H        0.28123056      -2.70863606       1.49115528       0.00000000
H        1.62680086      -1.27400833       2.41748913       0.00000000
Si       1.15805611       1.70715944       2.86514648       0.00000000
Si      -0.11437209       3.20955357       1.59498808       0.00000000
Si      -3.50293647      -0.69431239      -0.98674567       0.00000000
