10
Lattice="16.2900001489832 0.0 0.0 0.0 16.2900001489832 0.0 0.0 0.0 29.04414162538098" Properties=species:S:1:pos:R:3:initial_magmoms:R:1 pbc="T T T"
H       -0.40765725      -0.56763320      -1.37753459       0.00000000
Si      -1.64522485       1.01385703       1.31549631       0.00000000
Si       1.13296951      -1.68451634       1.22415248       0.00000000
Si       1.40669038       1.93088630      -0.27888185       0.00000000
H       -1.50029272       1.66148228      -2.04923846       0.00000000
H       -3.13980956      -1.17182279      -1.20056864       0.00000000
Si       2.33025194      -2.65298942      -0.54091809       0.00000000
Si      -0.27334620       2.35753769       2.70014091       0.00000000
Si       3.46599075       0.93535552      -0.48526952       0.00000000
Si       3.06190101      -0.89988730      -1.85641440       0.00000000
