10
Lattice="16.2900001489832 0.0 0.0 0.0 16.2900001489832 0.0 0.0 0.0 29.04414162538098" Properties=species:S:1:pos:R:3:initial_magmoms:R:1 pbc="T T T"
H       -0.43474752      -1.11340522      -0.96714087       0.00000000
Si      -2.02069307       0.88648552       0.70039948       0.00000000
Si       1.14588748       1.31046535      -1.55778254       0.00000000
Si       1.31044906      -1.29889945       1.50152403       0.00000000
Si      -2.82579375      -0.70047001      -0.75279511       0.00000000
Si       2.13470678      -2.73136061      -0.15041961       0.00000000
Si      -0.11965005      -3.35287299      -0.97672544       0.00000000
Si       2.49482981       2.64137465      -0.20842076       0.00000000
H       -1.55229040      -1.57928293      -2.98027746       0.00000000
Si       2.46342269      -0.09809838      -2.89250606       0.00000000
