10
Lattice="16.2900001489832 0.0 0.0 0.0 16.2900001489832 0.0 0.0 0.0 29.04414162538098" Properties=species:S:1:pos:R:3:initial_magmoms:R:1 pbc="T T T"
Si      -1.32538699      -1.34457661       1.38035187       0.00000000
Si      -1.43705494       1.34530966      -1.28717827       0.00000000
Si       1.35270532      -1.36311463      -1.36658495       0.00000000
Si       1.34402275       1.38025171       1.35903347       0.00000000
Si      -0.08200386       2.70860348      -2.56468484       0.00000000
Si       2.80158681       0.08964387      -2.53076999       0.00000000
Si      -2.68949531      -2.67445964       0.01324413       0.00000000
Si      -2.69482214       0.04382010       2.69491877       0.00000000
Si       2.72678313      -2.68648166       0.00229449       0.00000000
Si       0.03842811      -2.70928766       2.71225812       0.00000000
