10
Lattice="16.2900001489832 0.0 0.0 0.0 16.2900001489832 0.0 0.0 0.0 29.04414162538098" Properties=species:S:1:pos:R:3:initial_magmoms:R:1 pbc="T T T"
Si      -1.34309422      -1.34959393       1.35578053       0.00000000
Si       1.35646831       1.33029028       1.37422356       0.00000000
Si      -1.38047977       1.36907677      -1.31328895       0.00000000
Si       1.36477621      -1.38411244      -1.31654190       0.00000000
Si       2.68428251       2.69014691      -0.01010736       0.00000000
Si       2.70254360      -0.01876608      -2.68196508       0.00000000
Si       0.01594791      -2.69294879       2.69233384       0.00000000
Si      -0.02391372       2.65930994       2.73845594       0.00000000
Si      -0.04250061       2.71759556      -2.68298163       0.00000000
Si      -2.72590346       0.00275301      -2.67621434       0.00000000
