10
Lattice="16.2900001489832 0.0 0.0 0.0 16.2900001489832 0.0 0.0 0.0 29.04414162538098" Properties=species:S:1:pos:R:3:initial_magmoms:R:1 pbc="T T T"
Si      -1.34063443       1.41591052       1.30707351       0.00000000
Si       1.28709898       1.40007664      -1.38122320       0.00000000
Si      -1.39575979      -1.29323053      -1.39664564       0.00000000
Si       1.37229095      -1.33683886       1.39888204       0.00000000
H       -1.26096004      -1.39097053       2.71922872       0.00000000
Si      -0.28479807      -2.54537605       2.54815872       0.00000000
Si       2.66466284       0.04254948      -2.71554011       0.00000000
Si       2.65129038       2.73012257      -0.00856802       0.00000000
Si      -0.04329882      -2.66715521      -2.73093350       0.00000000
Si       2.70833633      -2.71487351       0.04289820       0.00000000
