10
Lattice="16.2900001489832 0.0 0.0 0.0 16.2900001489832 0.0 0.0 0.0 29.04414162538098" Properties=species:S:1:pos:R:3:initial_magmoms:R:1 pbc="T T T"
Si       1.38673513       1.38865735       1.26307163       0.00000000
Si       1.37606518      -1.38862477      -1.28682974       0.00000000
Si      -1.35614251       1.32846580      -1.38136842       0.00000000
Si      -1.42946380      -1.28326105       1.35987576       0.00000000
H       -0.11451870      -0.84453877       3.26345784       0.00000000
Si       2.75327067       0.04173498       2.58489956       0.00000000
Si      -2.67087584       2.68693778      -0.00055184       0.00000000
Si       0.00933417      -2.74033641      -2.62730401       0.00000000
Si      -2.45052101       0.19435599       2.90676674       0.00000000
Si      -2.91701775      -2.45806328      -0.04612210       0.00000000
