10
Lattice="16.2900001489832 0.0 0.0 0.0 16.2900001489832 0.0 0.0 0.0 29.04414162538098" Properties=species:S:1:pos:R:3:initial_magmoms:R:1 pbc="T T T"
Si      -0.81172680       2.10843101      -0.45361140       0.00000000
Si      -0.14799628      -1.37230219      -1.90950709       0.00000000
Si      -1.79470678      -1.39769830       0.66946746       0.00000000
Si       1.85089751      -0.45975267       1.42496368       0.00000000
H        2.57376627       0.77429629      -1.17158258       0.00000000
H        0.32171284       2.96472953      -0.97515706       0.00000000
H        1.36411973       0.29375757      -3.17278203       0.00000000
Si       0.65417871      -1.73807786       2.99228431       0.00000000
Si       1.65344642      -2.79875235      -1.36005002       0.00000000
Si      -2.34990257      -2.23402691      -1.39745887       0.00000000
