10
Lattice="16.2900001489832 0.0 0.0 0.0 16.2900001489832 0.0 0.0 0.0 29.04414162538098" Properties=species:S:1:pos:R:3:initial_magmoms:R:1 pbc="T T T"
Si       0.53199882      -1.16304085      -1.94906521       0.00000000
Si       1.43218423      -0.98916139       1.56216820       0.00000000
Si      -2.29843757      -0.11756493       0.46941142       0.00000000
Si       0.81163297       2.21185622      -0.19962039       0.00000000
H        1.62092017      -2.42528780       1.12069725       0.00000000
H        0.23755707       1.87525595      -2.70650738       0.00000000
Si       1.07515630       2.58049892       2.12542124       0.00000000
Si       0.63716707       0.60501061      -3.43923299       0.00000000
H       -1.82969282      -3.09873270       0.02175406       0.00000000
Si      -0.35665326       1.07600338       3.44704586       0.00000000
