10
Lattice="16.2900001489832 0.0 0.0 0.0 16.2900001489832 0.0 0.0 0.0 29.04414162538098" Properties=species:S:1:pos:R:3:initial_magmoms:R:1 pbc="T T T"
Si      -1.34690608       1.34485354       1.36643973       0.00000000
Si       1.34343631       1.40727682      -1.31999815       0.00000000
Si       1.35982405      -1.35342208       1.36196693       0.00000000
Si      -1.36894645      -1.34833960      -1.35961436       0.00000000
Si       0.04715955      -2.70273908      -2.64775108       0.00000000
Si       2.77105935       0.07498287      -2.59163780       0.00000000
Si      -2.70381422       2.68522733      -0.00043566       0.00000000
Si       0.01736514       2.69131979       2.72274306       0.00000000
Si      -2.70006752      -0.01242927       2.71934489       0.00000000
Si      -2.71630865      -2.71658558       0.00377574       0.00000000
