10
Lattice="16.2900001489832 0.0 0.0 0.0 16.2900001489832 0.0 0.0 0.0 29.04414162538098" Properties=species:S:1:pos:R:3:initial_magmoms:R:1 pbc="T T T"
Si      -1.38614869      -1.34719930       1.32641690       0.00000000
Si       1.35291709      -1.36127386      -1.34953604       0.00000000
Si      -1.36899532       1.33778368      -1.35749414       0.00000000
Si       1.35894439       1.32994819       1.38842615       0.00000000
Si      -0.02477709      -2.78801724       2.56395873       0.00000000
Si       2.69646743       2.68596038       0.01031067       0.00000000
Si      -0.03305241      -2.70625772      -2.68966178       0.00000000
Si      -2.72243369       2.68252319       0.00856802       0.00000000
Si      -0.01583388       2.69506649      -2.71039930       0.00000000
Si       2.69089625      -0.00320913      -2.71487209       0.00000000
