10
Lattice="16.2900001489832 0.0 0.0 0.0 16.2900001489832 0.0 0.0 0.0 29.04414162538098" Properties=species:S:1:pos:R:3:initial_magmoms:R:1 pbc="T T T"
Si       1.38852703       1.32968755       1.34581839       0.00000000
Si      -1.34803009       1.35557236      -1.36440664       0.00000000
Si       1.35865117      -1.34895862      -1.36385480       0.00000000
Si      -1.33752304      -1.35601219       1.37811548       0.00000000
Si       0.01554066       2.67799457       2.68260405       0.00000000
Si       0.10259442      -2.70133814       2.66726875       0.00000000
Si      -2.69646743      -2.68596038      -0.01031067       0.00000000
Si      -0.00557118      -2.68916951      -2.72518276       0.00000000
Si      -2.71581995       2.70620885      -0.02059230       0.00000000
Si       2.71501132       2.71077005      -0.02477465       0.00000000
