10
Lattice="16.2900001489832 0.0 0.0 0.0 16.2900001489832 0.0 0.0 0.0 29.04414162538098" Properties=species:S:1:pos:R:3:initial_magmoms:R:1 pbc="T T T"
Si      -1.13831263       1.94774319      -0.50542615       0.00000000
Si       1.78739648       0.45253620       1.46664202       0.00000000
Si       1.30960198      -0.30999870      -2.00300018       0.00000000
Si      -1.83865232      -1.15189849       1.27640289       0.00000000
H        2.54377638       0.42834555      -1.49533763       0.00000000
H       -0.94035655      -1.16380648      -2.64708307       0.00000000
H        1.16856316       2.40577890      -1.80616804       0.00000000
H        2.92083612       1.30883472       0.94509637       0.00000000
H       -0.46200069       3.29097099      -0.62976412       0.00000000
Si       2.59912328      -1.65589481       1.92025342       0.00000000
