10
Lattice="16.2900001489832 0.0 0.0 0.0 16.2900001489832 0.0 0.0 0.0 29.04414162538098" Properties=species:S:1:pos:R:3:initial_magmoms:R:1 pbc="T T T"
Si      -0.59325998       2.23409207       0.22538254       0.00000000
Si       0.54826504      -0.48410622       2.23912905       0.00000000
Si      -1.93322652      -1.23813775      -0.74855466       0.00000000
Si       1.72433463       0.07366338      -1.69272162       0.00000000
H        2.06038105       1.18195354       0.97585411       0.00000000
H        0.64091442       2.97243633       0.73304509       0.00000000
H       -2.84321851       1.38028429      -0.41870035       0.00000000
Si      -1.65364125      -1.34583094       2.75117727       0.00000000
Si      -1.50778059      -0.81793720      -3.03037860       0.00000000
Si      -0.54292388       2.74354554      -2.11121865       0.00000000
