10
Lattice="16.2900001489832 0.0 0.0 0.0 16.2900001489832 0.0 0.0 0.0 29.04414162538098" Properties=species:S:1:pos:R:3:initial_magmoms:R:1 pbc="T T T"
Si       1.38202732       1.34032492       1.33791838       0.00000000
Si       1.36778986      -1.35063649      -1.34381434       0.00000000
Si      -1.32910111      -1.36894645       1.37643092       0.00000000
Si      -1.34905636       1.36428751      -1.36359341       0.00000000
Si      -2.69788466       0.05545116       2.64528233       0.00000000
Si       0.01229895       2.70651836       2.65823602       0.00000000
Si       0.00351864      -2.69710274      -2.70011767       0.00000000
Si       2.71676477       0.01451439      -2.69224671       0.00000000
Si      -2.70648578      -0.00195480      -2.70592650       0.00000000
Si      -2.70308117      -2.70964604       0.01884965       0.00000000
