10
Lattice="16.2900001489832 0.0 0.0 0.0 16.2900001489832 0.0 0.0 0.0 29.04414162538098" Properties=species:S:1:pos:R:3:initial_magmoms:R:1 pbc="T T T"
Si      -0.47692559       2.19838439      -0.35149220       0.00000000
Si       2.14610978      -0.71635276      -0.34806499       0.00000000
Si      -0.68160944      -0.79141708       2.06593884       0.00000000
Si      -1.27876501      -1.55623258      -1.19249437       0.00000000
H        3.08842113      -0.15110604       0.67913916       0.00000000
Si      -2.20835387      -2.28420011       0.83722643       0.00000000
Si       1.71123194      -3.02418966      -0.20807223       0.00000000
Si       1.25755543       3.23043735       0.94924968       0.00000000
Si       0.37567998      -2.88660432      -2.11725984       0.00000000
Si      -0.19943847       2.41452011      -2.68054192       0.00000000
