10
Lattice="16.2900001489832 0.0 0.0 0.0 16.2900001489832 0.0 0.0 0.0 29.04414162538098" Properties=species:S:1:pos:R:3:initial_magmoms:R:1 pbc="T T T"
Si       0.98782561      -0.75101951      -1.91975967       0.00000000
Si      -0.16118955       2.21425574      -0.63060640       0.00000000
Si      -2.21832335      -0.63275736      -0.19709355       0.00000000
Si       1.58169385      -0.52040686       1.66873116       0.00000000
H       -1.88786441      -0.18815276       2.14761096       0.00000000
Si       2.91245655       0.58175337      -1.97485641       0.00000000
Si      -3.29818746       1.41285289       0.10717288       0.00000000
Si       1.28583487      -3.01494834      -1.56966159       0.00000000
Si       1.71318674       2.61046112      -1.91276004       0.00000000
Si      -0.60582511      -0.32434531      -3.62035225       0.00000000
