10
Lattice="16.2900001489832 0.0 0.0 0.0 16.2900001489832 0.0 0.0 0.0 29.04414162538098" Properties=species:S:1:pos:R:3:initial_magmoms:R:1 pbc="T T T"
Si      -1.36878355       1.42439761       1.26885142       0.00000000
Si      -1.37398006      -1.34069959      -1.35758127       0.00000000
Si       1.32910111       1.36894645      -1.37643092       0.00000000
Si       1.35700588      -1.32807484       1.41047065       0.00000000
Si      -0.20220777      -2.50779665       2.74202837       0.00000000
Si      -0.00847080       2.74072737       2.65640624       0.00000000
Si       2.70739802      -2.69327459       0.02227686       0.00000000
Si      -0.02054169      -2.68543910      -2.72364342       0.00000000
Si       2.69689097       0.01830996      -2.72024526       0.00000000
Si       2.71112843       2.70927137      -0.03851253       0.00000000
