10
Lattice="16.2900001489832 0.0 0.0 0.0 16.2900001489832 0.0 0.0 0.0 29.04414162538098" Properties=species:S:1:pos:R:3:initial_magmoms:R:1 pbc="T T T"
Si      -1.12423481       1.53756424      -1.32592315       0.00000000
Si       1.64522485      -1.01385703      -1.31549631       0.00000000
Si      -1.46517963      -1.33387571       1.26586277       0.00000000
Si       1.37187865       1.34368066       1.38464460       0.00000000
H        1.23756760      -1.58149023      -2.69303090       0.00000000
H        0.14493213       0.64762525      -3.36473476       0.00000000
Si       3.05191524       0.91702927      -1.59437815       0.00000000
H       -1.49458471      -2.18567982      -2.51606494       0.00000000
Si      -2.40990190       2.82998028       0.15795337       0.00000000
Si      -0.01291797      -2.74523970       2.56068836       0.00000000
