10
Lattice="16.2900001489832 0.0 0.0 0.0 16.2900001489832 0.0 0.0 0.0 29.04414162538098" Properties=species:S:1:pos:R:3:initial_magmoms:R:1 pbc="T T T"
Si       1.35904213      -1.34335486       1.33655331       0.00000000
Si       1.34309422       1.34959393      -1.35578053       0.00000000
Si      -1.33134913       1.32012532       1.41523389       0.00000000
Si      -1.36295173      -1.38264634      -1.32693970       0.00000000
Si      -0.14418279      -2.55197513       2.63735328       0.00000000
Si      -2.68615586       2.68346801       0.07990043       0.00000000
Si       2.69956253       2.67988421       0.01844303       0.00000000
Si       2.70787043      -0.03451851      -2.67232243       0.00000000
Si      -0.03738555       2.71867070      -2.66906948       0.00000000
Si      -2.72222192      -0.01456326      -2.67124779       0.00000000
