10
Lattice="16.2900001489832 0.0 0.0 0.0 16.2900001489832 0.0 0.0 0.0 29.04414162538098" Properties=species:S:1:pos:R:3:initial_magmoms:R:1 pbc="T T T"
Si       0.97616197      -1.15440552      -0.17106999       0.00000000
Si      -1.70142536       1.58208481      -0.26316897       0.00000000
Si      -1.34397388       0.87809617       1.93518211       0.00000000
Si       0.80664823      -2.00508562       1.99881783       0.00000000
Si       2.63325099       0.05413167      -1.32034668       0.00000000
Si      -0.18389781      -2.67327047      -1.51468103       0.00000000
Si      -1.38334681      -1.37963269       2.44330937       0.00000000
Si      -0.07967439       2.80688106      -1.41215521       0.00000000
Si       0.91038295       1.49960854       2.76148794       0.00000000
Si      -2.90351334       0.03424158      -1.52577589       0.00000000
