10
Lattice="16.2900001489832 0.0 0.0 0.0 16.2900001489832 0.0 0.0 0.0 29.04414162538098" Properties=species:S:1:pos:R:3:initial_magmoms:R:1 pbc="T T T"
Si      -1.25698528      -1.29236716       1.45070840       0.00000000
Si       1.33182154      -1.20081736      -1.48288641       0.00000000
Si      -1.44313111       1.21650137      -1.38047386       0.00000000
Si       1.40066308       1.43698653       1.23241264       0.00000000
Si       2.06513219       0.61618392      -2.79295843       0.00000000
Si      -0.09260865       1.74181152      -3.18830903       0.00000000
Si      -2.56075544      -2.60234381       0.06549744       0.00000000
Si      -2.66165570       0.10246410       2.66884875       0.00000000
Si       0.14281443      -2.69154785       2.66367889       0.00000000
Si       2.80160065       0.07565076       2.55868432       0.00000000
