10
Lattice="16.2900001489832 0.0 0.0 0.0 16.2900001489832 0.0 0.0 0.0 29.04414162538098" Properties=species:S:1:pos:R:3:initial_magmoms:R:1 pbc="T T T"
Si      -0.73612882      -1.16554951      -0.59360417       0.00000000
H        1.96235858      -0.38941245      -0.32686277       0.00000000
H        1.34557030       1.43462773       0.92633385       0.00000000
Si       0.08465913       2.26686755       0.83943378       0.00000000
Si       2.42830145      -0.15143184      -1.72725510       0.00000000
Si      -0.28123056       2.70863606      -1.49115528       0.00000000
Si      -2.61050510      -1.56175489       0.68854947       0.00000000
Si      -1.02726370      -0.78301144      -2.86349097       0.00000000
Si      -1.24486552       1.45270963       2.65358896       0.00000000
Si       0.46314099      -3.19425726      -0.65570054       0.00000000
