10
Lattice="16.2900001489832 0.0 0.0 0.0 16.2900001489832 0.0 0.0 0.0 29.04414162538098" Properties=species:S:1:pos:R:3:initial_magmoms:R:1 pbc="T T T"
Si      -1.31548267      -1.28179495       1.40881513       0.00000000
Si      -1.37254654       1.34306327      -1.30515659       0.00000000
Si       1.48713040       1.24602211       1.28578415       0.00000000
Si       1.36366849      -1.38719125      -1.29353894       0.00000000
Si       0.13805775      -2.51576246       2.72073901       0.00000000
Si      -2.53158005       2.71547786       0.18036412       0.00000000
Si      -2.76535785      -0.04220739      -2.56613705       0.00000000
Si      -0.03303612       2.65989638      -2.68330111       0.00000000
Si      -0.01531260      -2.74339893      -2.59930545       0.00000000
Si       2.68657940      -0.04761567      -2.67220625       0.00000000
