10
Lattice="16.2900001489832 0.0 0.0 0.0 16.2900001489832 0.0 0.0 0.0 29.04414162538098" Properties=species:S:1:pos:R:3:initial_magmoms:R:1 pbc="T T T"
Si      -1.37606518       1.38862477       1.28682974       0.00000000
Si      -1.36673101      -1.35171163      -1.34047427       0.00000000
Si       1.33672483       1.31709538      -1.42417948       0.00000000
Si       1.42501663      -1.32768388       1.32676543       0.00000000
Si       0.01066995       2.77728213       2.54990137       0.00000000
Si       2.73066014       2.66310551      -0.11574090       0.00000000
Si      -0.01633887      -2.71691138      -2.72866806       0.00000000
Si      -2.73220769       2.71709057      -0.09453868       0.00000000
Si       2.77395897       0.00322542       2.67612721       0.00000000
Si      -2.80552899       0.10536372       2.64670549       0.00000000
