10
Lattice="16.2900001489832 0.0 0.0 0.0 16.2900001489832 0.0 0.0 0.0 29.04414162538098" Properties=species:S:1:pos:R:3:initial_magmoms:R:1 pbc="T T T"
Si      -0.65111131       0.63094429       1.23617676       0.00000000
H       -0.94371229      -1.95831866       0.37281060       0.00000000
Si       1.95486518       1.97662862      -0.29929988       0.00000000
Si       1.34890975       1.03827574      -2.32965964       0.00000000
Si       2.43512696      -1.67469347       0.43630110       0.00000000
Si       2.06923727      -1.23292495      -1.89428796       0.00000000
Si       0.43430769       2.78765886       1.35488016       0.00000000
Si      -2.77457799       1.42322473       0.64292112       0.00000000
Si      -0.21380625      -0.74652184       3.10261139       0.00000000
Si      -1.88602364      -2.52356537      -0.65439355       0.00000000
