10
Lattice="16.2900001489832 0.0 0.0 0.0 16.2900001489832 0.0 0.0 0.0 29.04414162538098" Properties=species:S:1:pos:R:3:initial_magmoms:R:1 pbc="T T T"
Si      -1.34680183      -1.40454010       1.30753821       0.00000000
Si       1.32944320      -1.35584929      -1.37921915       0.00000000
Si      -1.36570637       1.35267274      -1.35290516       0.00000000
Si       1.36550926       1.34218198       1.37192907       0.00000000
Si      -2.72476431      -0.06908589       2.62980180       0.00000000
Si       2.67569768       2.73246834       0.00357243       0.00000000
Si       2.66885588       0.01106091      -2.73996623       0.00000000
Si       2.68871339      -2.72393237      -0.03491106       0.00000000
Si      -2.70357721       2.71124246       0.00601214       0.00000000
Si       2.72031599      -0.02116071       2.70726253       0.00000000
