10
Lattice="16.2900001489832 0.0 0.0 0.0 16.2900001489832 0.0 0.0 0.0 29.04414162538098" Properties=species:S:1:pos:R:3:initial_magmoms:R:1 pbc="T T T"
Si      -1.45354042       1.23396751      -1.31192388       0.00000000
Si      -1.50329008      -0.85426390       1.55272886       0.00000000
Si       1.40835196       1.40807503       1.21387086       0.00000000
Si       1.23963643      -1.50218236      -1.30100328       0.00000000
H        0.56112535      -2.19750473       2.24325332       0.00000000
Si      -2.75617029       2.44257149       0.20993106       0.00000000
Si      -0.13805775       2.51576246      -2.72073901       0.00000000
Si       2.60330492      -0.22763646      -2.68431766       0.00000000
Si       3.58052574       0.69462190       0.91050480       0.00000000
Si      -2.59761971      -2.69648372       0.34269183       0.00000000
