10
Lattice="16.2900001489832 0.0 0.0 0.0 16.2900001489832 0.0 0.0 0.0 29.04414162538098" Properties=species:S:1:pos:R:3:initial_magmoms:R:1 pbc="T T T"
Si       1.34485354       1.35415513       1.36185076       0.00000000
Si      -1.36057013       1.38639304      -1.31625145       0.00000000
Si      -1.35380327      -1.34423452       1.37480444       0.00000000
Si       1.33066495      -1.34692237      -1.39699417       0.00000000
Si       2.67199985      -2.68685633      -0.01094964       0.00000000
Si      -2.73701781       0.04481379      -2.64783822       0.00000000
Si      -0.04118112       2.70223409       2.68623457       0.00000000
Si      -2.71378794      -2.68967450       0.00711581       0.00000000
Si       2.68970708       2.73346203       0.00731912       0.00000000
Si       2.67455738       0.00474039       2.75808978       0.00000000
