10
Lattice="16.2900001489832 0.0 0.0 0.0 16.2900001489832 0.0 0.0 0.0 29.04414162538098" Properties=species:S:1:pos:R:3:initial_magmoms:R:1 pbc="T T T"
Si      -1.38603466       1.34807896       1.32438381       0.00000000
Si      -1.34485354      -1.35415513      -1.36185076       0.00000000
Si       1.32970384      -1.34941474       1.39623902       0.00000000
Si       1.34485354       1.37930689      -1.35453163       0.00000000
Si      -0.00695583       2.69720048       2.64330733       0.00000000
Si       2.67022424      -2.68916951       0.00470515       0.00000000
Si      -2.70542368       0.03223791      -2.67810221       0.00000000
Si      -2.69865681      -2.69838965       0.01295369       0.00000000
Si       2.70456356       0.01130526      -2.70064046       0.00000000
Si       2.70791930       0.01729998       2.72163938       0.00000000
