10
Lattice="16.2900001489832 0.0 0.0 0.0 16.2900001489832 0.0 0.0 0.0 29.04414162538098" Properties=species:S:1:pos:R:3:initial_magmoms:R:1 pbc="T T T"
Si       1.36419140       1.33004593       1.37265518       0.00000000
Si       1.37756386      -1.35752716      -1.33431691       0.00000000
Si      -1.28709898      -1.40007664       1.38122320       0.00000000
Si      -1.37167666       1.36821340      -1.34282684       0.00000000
Si      -2.62773341       0.01583388       2.68829670       0.00000000
Si      -2.68285877      -2.69330717      -0.01542244       0.00000000
Si       2.69018601       2.68894145      -0.02288678       0.00000000
Si       0.01757919      -2.70296714      -2.70200554       0.00000000
Si       2.67435213      -0.06835284       2.75007359       0.00000000
Si       0.02791340       2.69627195       2.73671329       0.00000000
