10
Lattice="16.2900001489832 0.0 0.0 0.0 16.2900001489832 0.0 0.0 0.0 29.04414162538098" Properties=species:S:1:pos:R:3:initial_magmoms:R:1 pbc="T T T"
Si       1.37907883       1.34912152       1.31892352       0.00000000
Si       1.38603466      -1.34807896      -1.32438381       0.00000000
Si      -1.34929094       1.38940669      -1.33617574       0.00000000
Si      -1.32599461      -1.35889552       1.39554196       0.00000000
Si       0.03328047       2.67685427       2.68161655       0.00000000
Si      -2.69018601      -2.68894145       0.02288678       0.00000000
Si       0.04118112      -2.70223409      -2.68623457       0.00000000
Si      -2.70994660       0.04181643      -2.68455001       0.00000000
Si       2.73088820       0.03122793      -2.67891545       0.00000000
Si       2.71573850      -2.69749370       0.07185521       0.00000000
