10
Lattice="16.2900001489832 0.0 0.0 0.0 16.2900001489832 0.0 0.0 0.0 29.04414162538098" Properties=species:S:1:pos:R:3:initial_magmoms:R:1 pbc="T T T"
Si       1.65444500      -1.33037173      -0.92476547       0.00000000
Si      -1.50804676       1.19176012      -1.29632717       0.00000000
Si       1.27876501       1.55623258       1.19249437       0.00000000
Si      -0.92958886      -0.72796753       2.02972079       0.00000000
Si       0.59715557       0.76481551       3.25843320       0.00000000
Si      -2.77226481       1.99544357       0.48768018       0.00000000
Si       2.98999695      -1.46795707       0.98442214       0.00000000
Si      -3.17690841      -0.13266576       1.55752114       0.00000000
Si       3.42487479       0.83987983       0.84442937       0.00000000
Si       2.53211762      -0.06657723      -2.68318494       0.00000000
