10
Lattice="16.2900001489832 0.0 0.0 0.0 16.2900001489832 0.0 0.0 0.0 29.04414162538098" Properties=species:S:1:pos:R:3:initial_magmoms:R:1 pbc="T T T"
Si       0.39960999      -1.27024534      -0.73272560       0.00000000
H       -0.82274275      -1.53787375      -1.54387039       0.00000000
Si      -2.06441543       1.34324083      -0.69052447       0.00000000
Si      -0.98798851       1.85590343       1.50994683       0.00000000
Si       0.57407590       0.33660027       2.50688700       0.00000000
Si       2.04504662      -0.65160001      -2.22242867       0.00000000
Si       0.29444175      -3.03829680       0.75744217       0.00000000
Si      -0.56112535       2.19750473      -2.24325332       0.00000000
H       -2.81849583       0.58207429       1.47613945       0.00000000
Si       2.85664701       0.22196754       1.52362663       0.00000000
