10
Lattice="16.2900001489832 0.0 0.0 0.0 16.2900001489832 0.0 0.0 0.0 29.04414162538098" Properties=species:S:1:pos:R:3:initial_magmoms:R:1 pbc="T T T"
Si       1.09532332      -1.61648929       1.27628672       0.00000000
Si      -1.44304966      -1.26237727      -1.32911801       0.00000000
Si      -1.55571130       1.24932898       1.27922017       0.00000000
Si       1.76814920       0.94884364      -1.36248973       0.00000000
Si       2.40073877      -0.15833880       2.67248217       0.00000000
Si       1.62864163      -3.19456677      -0.55340707       0.00000000
Si      -1.88035472       0.11508885      -3.19555264       0.00000000
Si      -0.12364110      -3.00470682      -2.18127312       0.00000000
Si      -0.29649429       2.57023622       2.74005627       0.00000000
Si       1.15160527       3.11797119      -2.03439690       0.00000000
