10
Lattice="10.86 0.0 0.0 0.0 10.86 0.0 0.0 0.0 10.86" Properties=species:S:1:pos:R:3:initial_magmoms:R:1 pbc="T T T"
Si      -1.08693396       1.24293786      -1.37899194       0.00000000
Si       1.62806604       1.24293786       1.33600806       0.00000000
Si       1.62806604      -1.47206214      -1.37899194       0.00000000
Si      -2.21459292       2.75823366      -0.02733462       0.00000000
Si      -2.44443396      -0.11456214      -2.73649194       0.00000000
Si       0.28479264       2.48052174       2.77974732       0.00000000
Si       0.27056604       2.60043786      -2.73649194       0.00000000
Si      -2.58692802      -2.87166636      -0.16814538       0.00000000
Si       0.27056604      -2.82956214      -2.73649194       0.00000000
Si       2.98556604       2.60043786      -0.02149194       0.00000000
