10
Lattice="10.86 0.0 0.0 0.0 10.86 0.0 0.0 0.0 10.86" Properties=species:S:1:pos:R:3:initial_magmoms:R:1 pbc="T T T"
Si       1.34327340      -1.23758388      -1.44373926       0.00000000
Si       1.34327340       1.47741612       1.27126074       0.00000000
Si      -1.37172660       1.47741612      -1.44373926       0.00000000
Si      -2.60987520       0.17045856       2.60679096       0.00000000
Si      -0.28479264      -2.48052174      -2.77974732       0.00000000
Si       2.70077340      -2.59508388      -0.08623926       0.00000000
Si      -2.49938556       0.27771192      -2.80708194       0.00000000
Si       2.70077340       0.11991612       2.62876074       0.00000000
Si      -0.01422660       2.83491612       2.62876074       0.00000000
Si       0.19706556      -2.69975256       2.79780750       0.00000000
