10
Lattice="10.86 0.0 0.0 0.0 10.86 0.0 0.0 0.0 10.86" Properties=species:S:1:pos:R:3:initial_magmoms:R:1 pbc="T T T"
Si      -1.53745020       1.23524898      -1.43787486       0.00000000
Si       2.48982876      -2.51319948      -0.27550734       0.00000000
Si      -2.73656796      -2.43333504      -0.06859176       0.00000000
Si       2.42015100       2.82383892      -0.17437902       0.00000000
Si       2.48729838      -0.03311214      -2.77052718       0.00000000
Si      -0.30024642      -2.64022890       2.62890192       0.00000000
Si      -0.14064786       2.79557034       2.61551154       0.00000000
Si       2.71380540      -0.07059000       2.70675726       0.00000000
Si      -0.26525550      -2.67826062      -2.80665840       0.00000000
Si      -2.82906258       2.72884650      -0.08431704       0.00000000
