10
Lattice="16.290000149 0.0 0.0 0.0 16.290000149 0.0 0.0 0.0 29.1751946751" Properties=species:S:1:pos:R:3:initial_magmoms:R:1 pbc="T T T"
Si       1.60660126      -0.18490779      -1.68930212       0.00000000
Si      -0.50738463       2.26984210      -0.27360498       0.00000000
Si       0.24752655      -0.53014176       2.29762565       0.00000000
Si      -1.89716600      -1.31147533      -0.62621638       0.00000000
H        1.31691619      -2.23546043       1.50824086       0.00000000
H       -2.77962789      -0.45849834      -1.51419260       0.00000000
Si      -1.50320863       1.00719442       2.75559714       0.00000000
H        2.01689750       2.67340731      -0.29102257       0.00000000
Si       0.04471605      -0.96866857      -3.27339849       0.00000000
Si      -2.37506573       2.26011046       1.06857068       0.00000000
