10
Lattice="16.290000149 0.0 0.0 0.0 16.290000149 0.0 0.0 0.0 29.1751946751" Properties=species:S:1:pos:R:3:initial_magmoms:R:1 pbc="T T T"
Si       1.32821168      -1.36072000       1.37423919       0.00000000
Si      -1.37097619      -1.36878355      -1.32417456       0.00000000
Si      -1.36532356       1.34993602       1.35089904       0.00000000
Si       1.36725881       1.36528120      -1.34474307       0.00000000
Si      -2.69605367       0.01516599      -2.68376781       0.00000000
Si       0.00886828      -2.71696351      -2.66462888       0.00000000
Si       2.68424016       0.00705357       2.71130919       0.00000000
Si      -0.02269849       2.71147052       2.70389869       0.00000000
Si       2.72626836       0.01026270      -2.69876386       0.00000000
Si      -2.70260225       2.72490978      -0.00131288       0.00000000
