10
Lattice="16.290000149 0.0 0.0 0.0 16.290000149 0.0 0.0 0.0 29.1751946751" Properties=species:S:1:pos:R:3:initial_magmoms:R:1 pbc="T T T"
Si      -0.68817106       2.04973488       0.76794947       0.00000000
Si       2.05682429      -0.61279885       0.89191488       0.00000000
Si      -1.24106995      -1.78818915       0.84260880       0.00000000
Si      -0.63995266      -0.67893300      -2.14601062       0.00000000
Si      -0.68593933      -2.82490105      -1.16674521       0.00000000
H        0.68256730       2.30848524      -2.13667456       0.00000000
Si      -1.29539710       1.53528039       2.95115847       0.00000000
Si      -3.52803936       0.78064613      -0.77428049       0.00000000
Si       1.53526735      -1.86483361       2.82427555       0.00000000
Si       1.07644321       3.53552950       0.43937843       0.00000000
