10
Lattice="16.290000149 0.0 0.0 0.0 16.290000149 0.0 0.0 0.0 29.1751946751" Properties=species:S:1:pos:R:3:initial_magmoms:R:1 pbc="T T T"
Si      -1.34327341       1.35791812      -1.36857921       0.00000000
Si       1.32793312      -1.34858395      -1.39527451       0.00000000
Si       1.34877129       1.37756386       1.35124914       0.00000000
Si      -1.34371324      -1.37215558       1.36289004       0.00000000
Si       2.66706398      -2.70827768      -0.03311385       0.00000000
Si      -2.68763825       2.72323190      -0.01867212       0.00000000
Si      -2.70977636      -2.71156826      -0.00881091       0.00000000
Si      -2.72746730      -0.02840976       2.69794695       0.00000000
Si       2.71896392       0.03406239       2.70757477       0.00000000
Si       2.70822881       2.72864018      -0.00218814       0.00000000
