10
Lattice="16.290000149 0.0 0.0 0.0 16.290000149 0.0 0.0 0.0 29.1751946751" Properties=species:S:1:pos:R:3:initial_magmoms:R:1 pbc="T T T"
Si      -1.33845157       1.15246864       1.55831425       0.00000000
Si      -1.31165452      -1.44383158      -1.36998253       0.00000000
Si       1.42539130      -1.36775728       1.33594092       0.00000000
Si       0.84186721       1.99334216      -1.09705705       0.00000000
H        1.91125685       0.28802349      -1.88644183       0.00000000
Si      -0.90886798       3.53067834      -0.63908556       0.00000000
Si      -2.74419714       2.51563214       0.30400553       0.00000000
Si      -2.70558983      -0.01466100      -2.59609927       0.00000000
Si       0.08224821       2.60851772       2.78885394       0.00000000
Si      -2.63669942      -2.82660825       0.00685325       0.00000000
