10
Lattice="16.290000149 0.0 0.0 0.0 16.290000149 0.0 0.0 0.0 29.1751946751" Properties=species:S:1:pos:R:3:initial_magmoms:R:1 pbc="T T T"
Si      -1.34648254       1.28071981       1.45934324       0.00000000
Si      -1.37125963      -1.40548492      -1.31430167       0.00000000
Si       1.33998283      -1.33512841       1.42316600       0.00000000
Si       1.34126974       1.41863095      -1.35961075       0.00000000
Si       2.67351482      -0.01839141      -2.67435881       0.00000000
Si      -2.67897197      -2.69509907       0.15684585       0.00000000
Si       0.06258618      -2.77752648      -2.59925602       0.00000000
Si      -2.78065416       2.60038901       0.17691838       0.00000000
Si      -2.72082098      -0.04022001      -2.68869842       0.00000000
Si       2.68825727       2.74590759       0.03448508       0.00000000
