10
Lattice="16.290000149 0.0 0.0 0.0 16.290000149 0.0 0.0 0.0 29.1751946751" Properties=species:S:1:pos:R:3:initial_magmoms:R:1 pbc="T T T"
H       -0.15587901       0.79760728       1.27428498       0.00000000
Si       1.06965028       1.16869348      -1.70674889       0.00000000
Si      -2.21335490       0.06797817      -0.80485610       0.00000000
Si       0.85928122      -2.07788726       0.79391540       0.00000000
H       -1.43218423      -1.88788070       1.68766831       0.00000000
H       -1.56108700       2.83050156       0.81515494       0.00000000
Si      -2.70976007      -1.91296730       0.86396504       0.00000000
Si       1.94445587      -0.61458913      -2.98850272       0.00000000
Si       0.70498234      -1.65240875       3.15194216       0.00000000
Si      -2.76379401       2.45840537      -0.06596512       0.00000000
