10
Lattice="16.290000149 0.0 0.0 0.0 16.290000149 0.0 0.0 0.0 29.1751946751" Properties=species:S:1:pos:R:3:initial_magmoms:R:1 pbc="T T T"
Si       1.37810143       1.31885470      -1.36356107       0.00000000
Si      -1.37331217      -1.32527296      -1.36484478       0.00000000
Si       1.35615880      -1.37036368       1.33882051       0.00000000
Si      -1.36938628       1.37966527       1.32137374       0.00000000
Si      -0.05607018       2.63852390      -2.64598593       0.00000000
Si       0.04561200      -2.65696418      -2.66605846       0.00000000
Si       2.72653877      -0.01016496       2.66772145       0.00000000
Si      -2.72893340       0.01692531       2.66565001       0.00000000
Si      -0.01501938       2.73173529       2.68333018       0.00000000
Si       0.00027693      -2.72593604       2.69622562       0.00000000
