10
Lattice="16.290000149 0.0 0.0 0.0 16.290000149 0.0 0.0 0.0 29.1751946751" Properties=species:S:1:pos:R:3:initial_magmoms:R:1 pbc="T T T"
Si       1.35477415      -1.36664956       1.33730340       0.00000000
Si      -1.35602848      -1.36777357      -1.33707000       0.00000000
Si       1.37433844       1.33675741      -1.36236489       0.00000000
Si      -1.37767789       1.34527708       1.35784274       0.00000000
Si       2.64836306       0.06981894       2.65050809       0.00000000
Si       0.02788848      -2.72226591      -2.67166010       0.00000000
Si      -2.68424016      -0.00705357      -2.71130919       0.00000000
Si      -2.70693865       2.70441695      -0.00741050       0.00000000
Si      -2.70290036      -2.72215839       0.03903641       0.00000000
Si       0.03117906       2.71994132      -2.70588261       0.00000000
