10
Lattice="16.290000149 0.0 0.0 0.0 16.290000149 0.0 0.0 0.0 29.1751946751" Properties=species:S:1:pos:R:3:initial_magmoms:R:1 pbc="T T T"
Si       1.41892417      -1.33169122      -1.30121368       0.00000000
Si       1.37331217       1.32527296       1.36484478       0.00000000
Si      -1.35070165      -1.37559277       1.34751472       0.00000000
Si      -1.35169534       1.31968549      -1.40764479       0.00000000
Si       0.10881720      -2.69153156      -2.64785606       0.00000000
Si       0.00392589       2.70493823       2.68621852       0.00000000
Si       2.75141361       2.64412766       0.00128371       0.00000000
Si      -2.72095130      -0.01228266       2.68324265       0.00000000
Si      -2.71513577       2.69351894      -0.05907977       0.00000000
Si      -2.69715161      -2.73266381      -0.01447090       0.00000000
