10
Lattice="16.290000149 0.0 0.0 0.0 16.290000149 0.0 0.0 0.0 29.1751946751" Properties=species:S:1:pos:R:3:initial_magmoms:R:1 pbc="T T T"
Si      -1.43417161       1.31966920      -1.28242486       0.00000000
Si      -1.37810143      -1.31885470       1.36356107       0.00000000
Si       1.33542163       1.40139613       1.34170885       0.00000000
Si       1.34648254      -1.28071981      -1.45934324       0.00000000
Si      -0.07609059       2.65813706      -2.59658066       0.00000000
Si       2.68646537      -2.61584822      -0.03617724       0.00000000
Si      -0.02194263      -2.68921838       2.70238158       0.00000000
Si      -2.75141361      -2.64412766      -0.00128371       0.00000000
Si       2.69982317       0.06289569       2.70518240       0.00000000
Si      -2.74748772       0.06081057       2.68493482       0.00000000
