10
Lattice="16.290000149 0.0 0.0 0.0 16.290000149 0.0 0.0 0.0 29.1751946751" Properties=species:S:1:pos:R:3:initial_magmoms:R:1 pbc="T T T"
Si       0.90267778       0.07099182      -1.22054427       0.00000000
H       -1.29003769      -1.74928538      -0.42837938       0.00000000
H        1.89110612       0.42549480       1.24009165       0.00000000
Si      -1.82676062      -2.00857331       0.95615866       0.00000000
Si       1.17936343       2.94633160       0.24758070       0.00000000
Si       0.01233153       1.49009518      -2.81400588       0.00000000
Si       1.23645988      -2.05061780      -2.15167061       0.00000000
Si       2.78866884       1.41345073      -0.83233913       0.00000000
Si      -2.67840182      -0.13623327       2.07327686       0.00000000
H       -2.89127955      -0.91795780      -1.60320612       0.00000000
