10
Lattice="16.290000149 0.0 0.0 0.0 16.290000149 0.0 0.0 0.0 29.1751946751" Properties=species:S:1:pos:R:3:initial_magmoms:R:1 pbc="T T T"
Si      -1.33648700      -1.35151615       1.36957116       0.00000000
Si       1.35146728      -1.36093177      -1.36084778       0.00000000
Si      -1.40554845       1.33856397      -1.33321887       0.00000000
Si       1.34488612       1.34599547       1.38757226       0.00000000
Si       2.65212605       2.69407280      -0.03495188       0.00000000
Si      -2.71643236       0.04369060       2.66667114       0.00000000
Si      -0.05867658       2.69294879      -2.70932528       0.00000000
Si       2.71435385      -0.01026270      -2.71063816       0.00000000
Si      -0.07337016       2.70097976       2.72379617       0.00000000
Si      -2.71664250      -2.71055828       0.01289544       0.00000000
