10
Lattice="16.290000149 0.0 0.0 0.0 16.290000149 0.0 0.0 0.0 29.1751946751" Properties=species:S:1:pos:R:3:initial_magmoms:R:1 pbc="T T T"
Si       1.37718919       1.33918462       1.33327722       0.00000000
Si       1.37839465      -1.36617715      -1.31151253       0.00000000
Si      -1.35303112      -1.35200485       1.36172304       0.00000000
Si      -1.35081568       1.37668420      -1.34208813       0.00000000
Si      -0.05686839       2.66108555       2.61529363       0.00000000
Si      -0.00013032      -2.70080057      -2.65651818       0.00000000
Si       2.73427653      -0.01060479      -2.66891763       0.00000000
Si      -2.71614575       0.02220327      -2.68934027       0.00000000
Si       0.01013238      -2.67810860       2.74223490       0.00000000
Si       2.72570798       2.69736338      -0.01972243       0.00000000
