10
Lattice="16.290000149 0.0 0.0 0.0 16.290000149 0.0 0.0 0.0 29.1751946751" Properties=species:S:1:pos:R:3:initial_magmoms:R:1 pbc="T T T"
Si       1.54328203      -1.26524431      -1.19761257       0.00000000
Si       1.39673719       1.31989726       1.36693081       0.00000000
Si      -1.21419145      -1.43923780       1.44203359       0.00000000
Si      -1.47108475       1.20980944      -1.45379995       0.00000000
H        0.36787707      -1.83659978      -2.23225249       0.00000000
Si      -2.67255371       2.68084532      -0.02424459       0.00000000
Si       2.85598661       2.49994487      -0.04942278       0.00000000
Si      -2.64803726      -0.06719625       2.72698794       0.00000000
Si      -0.13558167       2.53474031      -2.85435517       0.00000000
Si       0.06449211       2.75691963       2.68167886       0.00000000
