10
Lattice="16.290000149 0.0 0.0 0.0 16.290000149 0.0 0.0 0.0 29.1751946751" Properties=species:S:1:pos:R:3:initial_magmoms:R:1 pbc="T T T"
Si       0.81564031      -0.98714143      -1.94178426       0.00000000
Si      -1.33550308      -1.32493087       1.40055522       0.00000000
Si       1.58928499       1.13243194       1.34086277       0.00000000
Si      -1.50123754       1.31279482      -1.29321968       0.00000000
H        1.27062001       0.29494674      -2.60487808       0.00000000
H        0.68593933       1.87796009       2.31365129       0.00000000
Si      -2.52814286       2.80194519       0.17919405       0.00000000
Si      -1.06122835      -1.69502339      -3.21539821       0.00000000
Si      -2.89551495      -2.45016263      -0.06762810       0.00000000
Si      -2.53697204       0.14610501       2.83011058       0.00000000
