10
Lattice="16.290000149 0.0 0.0 0.0 16.290000149 0.0 0.0 0.0 29.1751946751" Properties=species:S:1:pos:R:3:initial_magmoms:R:1 pbc="T T T"
Si      -1.33548679      -1.33840270       1.32648524       0.00000000
Si       1.49462380      -1.25073644      -1.26879421       0.00000000
Si      -1.24506100       1.37217187      -1.41584010       0.00000000
Si       1.42164460       1.43114167       1.23137410       0.00000000
Si       0.66963304       2.15265836      -2.53465047       0.00000000
H       -0.53862886      -0.44365815      -3.33413541       0.00000000
Si       2.37672731       0.46843524      -2.63261552       0.00000000
Si       0.09778887      -2.68467347       2.58933354       0.00000000
Si      -2.66427839       0.08215047       2.61165256       0.00000000
Si      -2.69418683      -2.61852835      -0.08764228       0.00000000
