10
Lattice="16.290000149 0.0 0.0 0.0 16.290000149 0.0 0.0 0.0 29.1751946751" Properties=species:S:1:pos:R:3:initial_magmoms:R:1 pbc="T T T"
Si      -1.38375406       1.34374582       1.33505691       0.00000000
Si      -1.36606312      -1.33941268      -1.37170095       0.00000000
Si       1.34371324       1.37215558      -1.36289004       0.00000000
Si       1.34027605      -1.36594909       1.37511445       0.00000000
Si      -2.68081274       2.64709244      -0.12577426       0.00000000
Si       2.66063269      -2.70179426      -0.03194684       0.00000000
Si       0.00498474       2.70106121       2.66565001       0.00000000
Si      -2.73269640      -0.04746906       2.68038349       0.00000000
Si       2.73210996       0.00819387       2.68761893       0.00000000
Si      -0.01927107      -2.68835501      -2.73715841       0.00000000
