10
Lattice="16.290000149 0.0 0.0 0.0 16.290000149 0.0 0.0 0.0 29.1751946751" Properties=species:S:1:pos:R:3:initial_magmoms:R:1 pbc="T T T"
Si       1.34679205      -1.34894233      -1.36545746       0.00000000
Si      -1.35368272      -1.37487601       1.34229236       0.00000000
Si      -1.35676153       1.32913369      -1.38754308       0.00000000
Si       1.36606312       1.33941268       1.37170095       0.00000000
Si      -0.01769094       2.68315850       2.70675786       0.00000000
Si      -2.72701119      -0.01573614       2.66290754       0.00000000
Si       2.68407074      -2.72391608      -0.01324554       0.00000000
Si      -0.01252701      -2.71230131      -2.69794695       0.00000000
Si      -2.73571005       2.67690314      -0.06724882       0.00000000
Si       2.70977636       2.71156826       0.00881091       0.00000000
