10
Lattice="16.290000149 0.0 0.0 0.0 16.290000149 0.0 0.0 0.0 29.1751946751" Properties=species:S:1:pos:R:3:initial_magmoms:R:1 pbc="T T T"
Si      -0.34461495       0.88247818       2.13512827       0.00000000
Si      -1.85603375      -0.93087577      -1.10582740       0.00000000
Si       1.05498928       1.76340881      -1.18156621       0.00000000
Si       1.60155136      -1.77640823      -0.08892599       0.00000000
Si       2.13742721       0.34331175      -2.67965411       0.00000000
Si      -0.67267927      -2.38190753      -2.51781930       0.00000000
Si       1.27690795       2.57041541       2.20290225       0.00000000
Si       2.23016618      -2.17885268       2.05938947       0.00000000
Si       3.43235190      -0.95073328      -1.25304544       0.00000000
Si      -3.15744186      -2.16821531       0.39436111       0.00000000
