10
Lattice="16.290000149 0.0 0.0 0.0 16.290000149 0.0 0.0 0.0 29.1751946751" Properties=species:S:1:pos:R:3:initial_magmoms:R:1 pbc="T T T"
Si      -2.19304616      -0.20660607      -0.66259785       0.00000000
Si       1.30138693      -0.28429308      -1.92028214       0.00000000
Si       0.51229933       0.94794769       2.07741974       0.00000000
Si       0.80498176      -2.26523855      -0.25146100       0.00000000
Si       0.75094783       2.10613412      -1.18139116       0.00000000
H       -2.25204854      -1.29639079      -1.70806177       0.00000000
H        2.08255760      -2.24015195       0.57224227       0.00000000
H        1.95365483       2.47823030      -0.30027110       0.00000000
H        3.35886282       0.44533602       0.15885894       0.00000000
Si      -2.66348507       1.92409337      -1.55430850       0.00000000
