10
Lattice="16.290000149 0.0 0.0 0.0 16.290000149 0.0 0.0 0.0 29.1751946751" Properties=species:S:1:pos:R:3:initial_magmoms:R:1 pbc="T T T"
Si       1.31169372       1.33675823      -1.36639107       0.00000000
Si      -1.27521379      -1.46272798      -1.29826699       0.00000000
Si      -1.30142440       1.41426116       1.33782855       0.00000000
Si       1.23098644      -1.49341834       1.35918479       0.00000000
H       -1.92109601      -2.29009709      -0.22170230       0.00000000
Si      -2.59037066      -0.02568933       2.61847372       0.00000000
Si       2.54512030       2.69739922       0.07684746       0.00000000
Si      -0.15685641       2.63069982      -2.63775853       0.00000000
Si       2.69163908      -0.05844852      -2.66349105       0.00000000
Si       2.57381025      -2.79502194      -0.06220152       0.00000000
