10
Lattice="16.290000149 0.0 0.0 0.0 16.290000149 0.0 0.0 0.0 29.1751946751" Properties=species:S:1:pos:R:3:initial_magmoms:R:1 pbc="T T T"
Si      -1.35050617      -1.34254036      -1.31244613       0.00000000
Si       1.39512448      -1.28304928       1.35973912       0.00000000
Si       1.38306988       1.33625242      -1.34065855       0.00000000
Si      -1.18335448       1.45103176       1.41199190       0.00000000
Si       2.27423063       0.60549931       2.42889331       0.00000000
Si       0.67267927       2.38190753       2.51781930       0.00000000
Si      -2.66061314       0.08456139      -2.60977951       0.00000000
Si       0.08690715      -2.67683798      -2.59422914       0.00000000
Si       0.02023218      -2.60203430       2.71737763       0.00000000
Si      -2.72207531      -2.59647941       0.11964747       0.00000000
