10
Lattice="16.290000149 0.0 0.0 0.0 16.290000149 0.0 0.0 0.0 29.1751946751" Properties=species:S:1:pos:R:3:initial_magmoms:R:1 pbc="T T T"
Si      -1.34540740      -1.29329569       1.36939611       0.00000000
Si       1.25861428       1.31781703       1.46777487       0.00000000
Si       1.36436896      -1.36904419      -1.34383864       0.00000000
Si      -1.42604290       1.36604846      -1.29473679       0.00000000
Si       2.41753376       2.76086181      -0.03381405       0.00000000
Si       2.70695819       0.01065366      -2.65686828       0.00000000
Si      -0.04597038      -2.69379587      -2.69864716       0.00000000
Si      -0.11880297       2.71412579      -2.71726093       0.00000000
Si      -2.76055230      -2.68596038       0.07220861       0.00000000
Si      -2.77092903       0.02005299      -2.68230905       0.00000000
