10
Lattice="16.290000149 0.0 0.0 0.0 16.290000149 0.0 0.0 0.0 29.1751946751" Properties=species:S:1:pos:R:3:initial_magmoms:R:1 pbc="T T T"
Si      -1.35355240      -1.35568639       1.33444423       0.00000000
Si      -1.37559277       1.34598896      -1.33628227       0.00000000
Si       1.30779379       1.31327212       1.44621440       0.00000000
Si       1.35264016      -1.38557854      -1.33631144       0.00000000
Si       0.04129515      -2.80631091       2.52811814       0.00000000
Si       2.67473657       2.67279806       0.07039974       0.00000000
Si      -0.01063737       2.69425199      -2.68464306       0.00000000
Si       2.71238276      -0.02145393      -2.67778689       0.00000000
Si      -2.72689715      -0.02264310      -2.68753141       0.00000000
Si      -2.72427446       2.69633711       0.03699415       0.00000000
