10
Lattice="16.290000149 0.0 0.0 0.0 16.290000149 0.0 0.0 0.0 29.1751946751" Properties=species:S:1:pos:R:3:initial_magmoms:R:1 pbc="T T T"
H       -1.13165002       0.06315633       1.00418103       0.00000000
Si       0.22328703      -2.13514661      -0.91303772       0.00000000
Si       2.06410592       0.69353047       0.89906280       0.00000000
Si      -0.22641471       1.50959431      -1.84040046       0.00000000
H       -0.46239165       0.99486289       2.62235402       0.00000000
H       -2.06363351       1.82619047       1.44752728       0.00000000
Si       2.34836642      -1.55173654      -1.91613926       0.00000000
H        2.43602291      -2.37798164       0.65813404       0.00000000
Si       3.32024412       0.44476587      -1.04009569       0.00000000
Si       1.73032382       2.81514009       1.83018914       0.00000000
