10
Lattice="16.290000149 0.0 0.0 0.0 16.290000149 0.0 0.0 0.0 29.1751946751" Properties=species:S:1:pos:R:3:initial_magmoms:R:1 pbc="T T T"
Si      -0.98046253       1.85627810      -0.89950043       0.00000000
Si      -1.76461427      -1.48579462       0.32857104       0.00000000
Si       0.39192111       0.63851914       2.22466694       0.00000000
Si       1.75210355      -0.97147045      -1.26853746       0.00000000
H       -0.39387591      -1.22704426      -2.57605299       0.00000000
Si       1.88336837      -1.23243625       2.56957610       0.00000000
Si       2.49476465      -2.29829096       0.51704280       0.00000000
Si      -2.46645263       0.84204640      -2.36984271       0.00000000
Si      -1.07644321      -3.53552950      -0.43937843       0.00000000
Si      -3.58524984      -0.60121504      -0.82063988       0.00000000
