10
Lattice="16.290000149 0.0 0.0 0.0 16.290000149 0.0 0.0 0.0 29.1751946751" Properties=species:S:1:pos:R:3:initial_magmoms:R:1 pbc="T T T"
Si       1.38404728      -1.35638686      -1.32175302       0.00000000
Si       1.33952671       1.32079321       1.40572506       0.00000000
Si      -1.34811154      -1.40045131       1.32321761       0.00000000
Si      -1.32911740       1.39556431      -1.37021594       0.00000000
Si      -0.02899620      -2.65124639      -2.66501224       0.00000000
Si      -2.65631258       2.70769124       0.05425127       0.00000000
Si       2.70609482       0.04549797      -2.66500291       0.00000000
Si      -2.69956253      -0.03367143       2.68447385       0.00000000
Si      -2.75571417       0.03600090      -2.65044798       0.00000000
Si       2.69206913       2.71458964       0.09610309       0.00000000
