10
Lattice="16.290000149 0.0 0.0 0.0 16.290000149 0.0 0.0 0.0 29.1751946751" Properties=species:S:1:pos:R:3:initial_magmoms:R:1 pbc="T T T"
H        0.91491157      -1.29749200      -0.42064796       0.00000000
Si      -1.60937056      -1.70105720      -0.40323037       0.00000000
Si      -0.68944168       0.60084037       2.22808278       0.00000000
Si      -0.02088378       1.45601650      -1.93615344       0.00000000
Si       2.35923185      -0.49158333       0.31850560       0.00000000
H        0.22429701      -1.11773184      -2.83968005       0.00000000
Si      -2.79590160      -0.57171385      -2.02933902       0.00000000
Si      -1.26262162       3.29504349      -1.24899008       0.00000000
Si       1.31945743      -2.19180323      -2.81476443       0.00000000
H        0.03244968       3.83434023      -0.31293314       0.00000000
