10
Lattice="16.290000149 0.0 0.0 0.0 16.290000149 0.0 0.0 0.0 29.1751946751" Properties=species:S:1:pos:R:3:initial_magmoms:R:1 pbc="T T T"
Si       1.32926075      -1.35913987       1.36525323       0.00000000
Si      -1.34262507      -1.36153450      -1.35299965       0.00000000
Si      -1.32035664       1.33584517       1.40706129       0.00000000
Si       1.35014453       1.36567216      -1.36405705       0.00000000
Si       2.63987272       0.07027506       2.68831914       0.00000000
Si      -2.66063269       2.70179426       0.03194684       0.00000000
Si      -2.67990376       0.01343925      -2.70521158       0.00000000
Si      -2.69647069      -2.70958088       0.02016006       0.00000000
Si       2.70693865      -2.70441695       0.00741050       0.00000000
Si       0.02269849      -2.71147052      -2.70389869       0.00000000
