10
Lattice="16.290000149 0.0 0.0 0.0 16.290000149 0.0 0.0 0.0 29.1751946751" Properties=species:S:1:pos:R:3:initial_magmoms:R:1 pbc="T T T"
Si       1.40794471      -1.18821720      -1.46439055       0.00000000
Si      -1.31820962      -1.43240431       1.34561833       0.00000000
Si      -1.81645230       1.20043439      -0.94501373       0.00000000
Si       1.44871858       1.43925068       1.27796105       0.00000000
H        0.83799019       2.57462622      -1.46450725       0.00000000
Si      -0.43958565       2.54953962      -2.28821052       0.00000000
Si      -2.68801292       1.99862811       1.09961309       0.00000000
Si      -2.47382858       0.14309870       2.66556249       0.00000000
Si      -0.13499523      -2.50086542      -2.65345478       0.00000000
Si       2.79163362      -2.50091429      -0.02952530       0.00000000
