10
Lattice="16.290000149 0.0 0.0 0.0 16.290000149 0.0 0.0 0.0 29.1751946751" Properties=species:S:1:pos:R:3:initial_magmoms:R:1 pbc="T T T"
H        0.53672292       0.25928793      -1.38453804       0.00000000
Si       1.69313375      -0.92725939       1.30923686       0.00000000
Si      -0.85164121       1.87234004       1.11711820       0.00000000
Si      -1.79528834      -1.59816304      -0.12139798       0.00000000
H        1.82676062       2.00857331      -0.95615866       0.00000000
H       -1.06451893       1.09061551      -2.55936478       0.00000000
H       -0.13253544      -0.67241863      -3.00271104       0.00000000
Si      -2.16285590       0.50455017       2.60041428       0.00000000
Si       2.66727575      -2.38702259      -0.19684504       0.00000000
Si       0.43160355      -2.40916070       2.63945069       0.00000000
