10
Lattice="16.290000149 0.0 0.0 0.0 16.290000149 0.0 0.0 0.0 29.1751946751" Properties=species:S:1:pos:R:3:initial_magmoms:R:1 pbc="T T T"
Si       1.33431391       1.36441620      -1.36933776       0.00000000
Si      -1.36244674      -1.34236280      -1.37683579       0.00000000
Si      -1.42467454       1.36197270       1.29885049       0.00000000
Si       1.40108662      -1.34149943       1.35924314       0.00000000
Si       2.70503597      -2.68760730      -0.07188768       0.00000000
Si       0.05849739      -2.72119728       2.67227278       0.00000000
Si       2.69537600       2.70980732      -0.00207144       0.00000000
Si      -0.13108563       2.79844121       2.61205518       0.00000000
Si      -2.72533331      -2.69303187      -0.02704541       0.00000000
Si       2.63171468       0.09162636       2.78485986       0.00000000
