10
Lattice="16.290000149 0.0 0.0 0.0 16.290000149 0.0 0.0 0.0 29.1751946751" Properties=species:S:1:pos:R:3:initial_magmoms:R:1 pbc="T T T"
H       -1.18548847       0.51038199      -0.80053817       0.00000000
Si       1.33366231      -1.06836337      -1.62152814       0.00000000
H       -1.75409093       0.63804673       1.52962628       0.00000000
Si       1.29823156       1.67404187       1.17415571       0.00000000
Si      -0.68885524      -1.86227282       1.42132796       0.00000000
H       -0.55392517       2.17297199      -1.90487764       0.00000000
H        1.52695945      -1.07984782       2.54145121       0.00000000
Si      -3.06761880       1.09758763       0.92602068       0.00000000
H       -1.99317926       1.26258904      -2.45147491       0.00000000
Si       2.55766034       0.03003876       2.32780126       0.00000000
