10
Lattice="16.290000149 0.0 0.0 0.0 16.290000149 0.0 0.0 0.0 29.1751946751" Properties=species:S:1:pos:R:3:initial_magmoms:R:1 pbc="T T T"
Si      -1.31010697      -1.35984034      -1.34664238       0.00000000
Si       1.31747005      -1.39248550       1.34062937       0.00000000
Si      -1.41892417       1.33169122       1.30121368       0.00000000
Si       1.30771234       1.28961415      -1.47114752       0.00000000
Si      -0.04561200       2.65696418       2.66605846       0.00000000
Si       2.69501762      -0.02897991       2.64718211       0.00000000
Si       2.67897197       2.69509907      -0.15684585       0.00000000
Si       2.64665261      -2.75058282      -0.02538242       0.00000000
Si      -2.76962583      -0.04390155       2.64872840       0.00000000
Si      -2.77061952       2.65137671      -0.10643111       0.00000000
