10
Lattice="16.290000149 0.0 0.0 0.0 16.290000149 0.0 0.0 0.0 29.1751946751" Properties=species:S:1:pos:R:3:initial_magmoms:R:1 pbc="T T T"
Si       2.19791198      -0.38499786       0.81048691       0.00000000
Si       0.05146011       2.29271978       0.67178803       0.00000000
Si       0.15429888      -0.42547851      -2.35802676       0.00000000
Si      -1.52643817      -1.37084750       1.27819445       0.00000000
H       -2.13716657      -0.23547195      -1.46427385       0.00000000
H       -0.86086135       2.45001602      -1.87765718       0.00000000
Si       0.48449718       2.04015962       2.95616172       0.00000000
Si      -0.70498234       1.65240875      -3.15194216       0.00000000
Si       2.11553345       0.30462300       3.04077299       0.00000000
Si       2.45288306      -0.36121446      -2.80802496       0.00000000
