10
Lattice="16.290000149 0.0 0.0 0.0 16.290000149 0.0 0.0 0.0 29.1751946751" Properties=species:S:1:pos:R:3:initial_magmoms:R:1 pbc="T T T"
Si      -1.35798328       1.35723557       1.34074607       0.00000000
Si       1.35008263       1.37380250      -1.33488186       0.00000000
Si       1.38181555      -1.35894276       1.32329930       0.00000000
Si      -1.35575155      -1.37106252      -1.33794525       0.00000000
Si       2.67887423      -0.04675067      -2.62004918       0.00000000
Si       0.00749340      -2.71513415       2.65689745       0.00000000
Si      -2.72691344      -0.01049076      -2.64937025       0.00000000
Si       0.01578501       2.70435342       2.68347606       0.00000000
Si       2.73311994       0.00968929       2.67454845       0.00000000
Si      -2.70143588       0.00197761       2.70704961       0.00000000
