10
Lattice="16.290000149 0.0 0.0 0.0 16.290000149 0.0 0.0 0.0 29.1751946751" Properties=species:S:1:pos:R:3:initial_magmoms:R:1 pbc="T T T"
Si      -1.42969186       1.44360352       1.12111521       0.00000000
Si      -1.36037791      -1.30767976      -1.38917689       0.00000000
Si       1.34894233       1.39121488      -1.34532658       0.00000000
Si       1.33198444      -1.31579218       1.44198400       0.00000000
H       -0.58556035       2.37698795       1.93209809       0.00000000
Si      -2.70119153      -2.64106514      -0.01648398       0.00000000
Si       0.01295055      -2.66681963      -2.70979208       0.00000000
Si       2.71790507      -2.66600513       0.08805074       0.00000000
Si       2.73269640       0.04746906      -2.68038349       0.00000000
Si      -2.72461655       2.73764855      -0.30549346       0.00000000
