10
Lattice="16.290000149 0.0 0.0 0.0 16.290000149 0.0 0.0 0.0 29.1751946751" Properties=species:S:1:pos:R:3:initial_magmoms:R:1 pbc="T T T"
Si       0.46077894      -0.41878332       2.21360955       0.00000000
Si       1.83073538       1.29298618      -0.63683615       0.00000000
Si      -1.65247391       1.65328841      -0.09767855       0.00000000
Si      -0.66398041      -1.87939361      -1.29371566       0.00000000
H        1.81763822       0.15543918       2.48695194       0.00000000
Si       0.79995304       2.11921499      -2.59122409       0.00000000
Si      -2.07988441      -0.65552590      -2.67206855       0.00000000
Si      -3.42270822       0.64607770      -1.25068225       0.00000000
Si      -0.72959653       3.38188548      -1.37995753       0.00000000
Si       3.65485701      -0.16115697      -0.80097579       0.00000000
