10
Lattice="16.290000149 0.0 0.0 0.0 16.290000149 0.0 0.0 0.0 29.1751946751" Properties=species:S:1:pos:R:3:initial_magmoms:R:1 pbc="T T T"
Si       1.35749621      -1.37958382      -1.33380237       0.00000000
Si       1.36526817       1.33335280       1.37353899       0.00000000
Si      -1.34117200      -1.35472528       1.38278753       0.00000000
Si      -1.35039214       1.38028429      -1.36283169       0.00000000
Si      -2.69293250       2.68583006       0.05957575       0.00000000
Si       2.71156826       2.68076387       0.00350102       0.00000000
Si      -2.69866658      -2.70075170       0.02584922       0.00000000
Si       2.70115895      -0.05330088      -2.72087574       0.00000000
Si       0.02322954      -2.73709470      -2.70827789       0.00000000
Si       0.03416705       2.68117112       2.76452475       0.00000000
