10
Lattice="16.290000149 0.0 0.0 0.0 16.290000149 0.0 0.0 0.0 29.1751946751" Properties=species:S:1:pos:R:3:initial_magmoms:R:1 pbc="T T T"
Si      -1.32287833      -1.34432314      -1.33063103       0.00000000
Si       1.31784733      -1.43489978       1.27431415       0.00000000
Si      -1.44265870       1.33299931       1.28108280       0.00000000
Si       1.30075065       1.29305623      -1.46878141       0.00000000
Si       2.63220338      -0.05056253       2.63673739       0.00000000
Si      -0.07271856       2.68156697       2.61759847       0.00000000
Si      -2.74411569      -0.00987337      -2.58136287       0.00000000
Si       2.66347041       2.68932101      -0.15515369       0.00000000
Si      -0.13918176       2.67995426      -2.69593386       0.00000000
Si      -0.08091243      -2.76991416       2.60820405       0.00000000
