10
Lattice="16.290000149 0.0 0.0 0.0 16.290000149 0.0 0.0 0.0 29.1751946751" Properties=species:S:1:pos:R:3:initial_magmoms:R:1 pbc="T T T"
Si      -1.40228329       1.16722738      -1.46406962       0.00000000
Si      -1.45924942      -1.18004761       1.41635359       0.00000000
Si       1.46382006      -1.27431784      -1.34567668       0.00000000
Si       1.22086449       1.49056759       1.39546123       0.00000000
H       -2.30562895       1.91275553      -0.49128110       0.00000000
Si       2.65198824       0.41528097      -2.54156791       0.00000000
Si      -0.07088528      -2.53312760       2.77975128       0.00000000
Si      -2.85598661      -2.49994487       0.04942278       0.00000000
Si       2.60704413       0.15066621       2.76715343       0.00000000
Si      -0.25460391       2.80460046      -2.65056644       0.00000000
