10
Lattice="16.290000149 0.0 0.0 0.0 16.290000149 0.0 0.0 0.0 29.1751946751" Properties=species:S:1:pos:R:3:initial_magmoms:R:1 pbc="T T T"
H        1.20270700       0.37209618       0.88112005       0.00000000
Si       0.84411523       1.48691863      -1.63360668       0.00000000
Si      -0.75094783      -2.10613412       1.18139116       0.00000000
Si       0.55043911      -2.39042720      -0.73889098       0.00000000
Si      -2.20152836       1.42289893       1.03854940       0.00000000
H        2.60791499      -1.66079810       1.34025009       0.00000000
Si      -3.41443290      -0.18204075      -0.37291734       0.00000000
Si      -0.23864850      -1.15818643       3.25881089       0.00000000
H       -1.89291594      -1.57737700      -2.46915508       0.00000000
Si       1.26734572       3.30328623      -0.15042730       0.00000000
