10
Lattice="16.290000149 0.0 0.0 0.0 16.290000149 0.0 0.0 0.0 29.1751946751" Properties=species:S:1:pos:R:3:initial_magmoms:R:1 pbc="T T T"
Si       0.44817048       2.20894031      -0.61078270       0.00000000
Si       1.07426035       0.09438426       2.10052649       0.00000000
Si      -0.42323049      -1.81636760      -1.48317937       0.00000000
Si      -2.30993342       0.17679537       0.59424037       0.00000000
H        2.73701324       1.02012868      -0.78078656       0.00000000
H       -0.06463872      -2.93119005       1.03154736       0.00000000
H        1.80502976       2.78316282      -0.33744030       0.00000000
Si      -1.26734572      -3.30328623       0.15042730       0.00000000
Si      -2.08771176       2.03387168       2.02863881       0.00000000
Si      -1.98770745      -0.74152081      -2.84793663       0.00000000
