10
Lattice="16.290000149 0.0 0.0 0.0 16.290000149 0.0 0.0 0.0 29.1751946751" Properties=species:S:1:pos:R:3:initial_magmoms:R:1 pbc="T T T"
Si      -1.31784733       1.43489978      -1.27431415       0.00000000
Si       1.31435606       1.38433724       1.36242324       0.00000000
Si      -1.39875976      -1.33501438       1.33388990       0.00000000
Si       1.28138184      -1.34309422      -1.45785530       0.00000000
Si      -2.64072566       0.09057664      -2.60494518       0.00000000
Si       2.64759483      -2.69102657      -0.08615435       0.00000000
Si      -0.02980639      -2.69061932       2.67486937       0.00000000
Si       2.66069199       0.02344131       2.71714423       0.00000000
Si       2.69084478       0.05033610      -2.71637692       0.00000000
Si       2.63782083       2.76895794       0.00064185       0.00000000
