10
Lattice="16.290000149 0.0 0.0 0.0 16.290000149 0.0 0.0 0.0 29.1751946751" Properties=species:S:1:pos:R:3:initial_magmoms:R:1 pbc="T T T"
Si      -0.39192111      -0.63851914      -2.22466694       0.00000000
Si      -1.99738208      -0.59137588       1.16829150       0.00000000
Si       0.76271410       2.04317327       1.01345874       0.00000000
Si       1.49144725      -1.87095539       0.34490915       0.00000000
H       -2.26256699       2.08727030      -0.27798125       0.00000000
Si       1.78833251       0.69760297       2.62748886       0.00000000
H        2.74870947       1.94067659      -0.05575380       0.00000000
Si      -2.15653538      -2.12431376      -1.89609590       0.00000000
Si      -1.08204697      -1.63222543       3.00895453       0.00000000
H       -0.46001331       3.29620008      -1.35810531       0.00000000
