10
Lattice="16.290000149 0.0 0.0 0.0 16.290000149 0.0 0.0 0.0 29.1751946751" Properties=species:S:1:pos:R:3:initial_magmoms:R:1 pbc="T T T"
Si       1.25613820      -0.24876459      -1.93915849       0.00000000
Si      -0.33378210       2.12160962       0.93112634       0.00000000
Si       1.22437270      -1.32279688       1.51565136       0.00000000
Si      -2.06410592      -0.69353047      -0.89906280       0.00000000
H        2.56966607      -0.70830550      -1.33555289       0.00000000
H       -2.52649757       0.30133242       1.72329122       0.00000000
H        0.37191699      -3.07151211      -0.24092876       0.00000000
H       -1.23645988       2.05061780       2.15167061       0.00000000
H       -3.19575594      -0.63037414       0.10511823       0.00000000
Si       0.28426050      -2.24526701      -2.81520206       0.00000000
