10
Lattice="16.290000149 0.0 0.0 0.0 16.290000149 0.0 0.0 0.0 29.1751946751" Properties=species:S:1:pos:R:3:initial_magmoms:R:1 pbc="T T T"
Si       1.31408173       1.35941680      -1.38389618       0.00000000
Si      -1.38554596       1.47777994       1.21441748       0.00000000
Si       1.60378309      -1.29885058       1.20724038       0.00000000
Si      -1.50413716      -1.34311051      -1.30007585       0.00000000
Si      -1.67922209      -2.39956589       2.10913317       0.00000000
Si      -2.22966119      -0.00913869       2.84802415       0.00000000
Si       2.37210095      -0.10570581      -2.86334113       0.00000000
Si       3.47402172       0.16491996       1.36822910       0.00000000
Si       3.12963483       2.11597328      -0.00040845       0.00000000
H        2.08013528       1.00867681       3.00136898       0.00000000
