10
Lattice="16.290000149 0.0 0.0 0.0 16.290000149 0.0 0.0 0.0 29.1751946751" Properties=species:S:1:pos:R:3:initial_magmoms:R:1 pbc="T T T"
Si      -1.74493595      -0.32247358       1.49403254       0.00000000
Si       0.11507256      -2.30539503      -0.23299310       0.00000000
Si      -0.98435584       0.86106823      -1.98537200       0.00000000
Si       1.83280421       1.18608957       1.00744865       0.00000000
H       -0.42241599       2.66494466       1.50336861       0.00000000
Si      -2.50440833       2.17815058      -0.78793448       0.00000000
Si       1.71551621      -2.23197600      -2.02388325       0.00000000
Si      -1.06468183       3.50728427       0.42318620       0.00000000
Si       0.40350330      -3.19171765       2.00786607       0.00000000
Si      -3.66332781       0.73510580       0.71365444       0.00000000
