10
Lattice="16.290000149 0.0 0.0 0.0 16.290000149 0.0 0.0 0.0 29.1751946751" Properties=species:S:1:pos:R:3:initial_magmoms:R:1 pbc="T T T"
Si      -1.34633593       1.36089593      -1.35472099       0.00000000
Si       1.35692443       1.36264711       1.34955698       0.00000000
Si      -1.37531747      -1.34825815       1.35089904       0.00000000
Si       1.31808907      -1.37005417      -1.38885597       0.00000000
Si      -2.66069199      -0.02344131      -2.71714423       0.00000000
Si       0.01340667      -2.69808014       2.68067524       0.00000000
Si       2.70260876      -0.01039302      -2.69543789       0.00000000
Si      -0.02699253       2.71713944       2.68414709       0.00000000
Si      -2.69049838      -2.71406063      -0.04227486       0.00000000
Si       2.69974172      -2.71643897      -0.05295298       0.00000000
