10
Lattice="10.86 0.0 0.0 0.0 10.86 0.0 0.0 0.0 10.86" Properties=species:S:1:pos:R:3:initial_magmoms:R:1 pbc="T T T"
Si      -1.34154666      -1.11056532       1.14743502       0.00000000
Si       1.37345334      -1.11056532      -1.56756498       0.00000000
Si       1.37345334       1.60443468       1.14743502       0.00000000
Si      -2.09897736       2.24379546      -1.00346400       0.00000000
Si       0.01595334      -2.46806532       2.50493502       0.00000000
Si      -2.42665614       0.14173386       2.55785580       0.00000000
Si      -2.69904666      -2.46806532      -0.21006498       0.00000000
Si       2.73095334      -2.46806532      -0.21006498       0.00000000
Si       2.73095334       0.24693468       2.50493502       0.00000000
Si      -0.52167096       2.72043000      -2.53448508       0.00000000
