10
Lattice="10.86 0.0 0.0 0.0 10.86 0.0 0.0 0.0 10.86" Properties=species:S:1:pos:R:3:initial_magmoms:R:1 pbc="T T T"
Si      -1.25932560      -1.37737380       1.32067374       0.00000000
Si      -1.25932560       1.33762620      -1.39432626       0.00000000
Si       1.45567440       1.33762620       1.32067374       0.00000000
Si       1.76025396      -1.32990474      -1.46592624       0.00000000
Si      -2.61682560      -0.01987380       2.67817374       0.00000000
Si      -2.61682560       2.69512620      -0.03682626       0.00000000
Si       0.12656244       2.52513462      -2.80668012       0.00000000
Si      -2.61682560      -2.73487380      -0.03682626       0.00000000
Si      -2.61682560      -0.01987380      -2.75182626       0.00000000
Si       0.09817440       2.69512620       2.67817374       0.00000000
