10
Lattice="10.86 0.0 0.0 0.0 10.86 0.0 0.0 0.0 10.86" Properties=species:S:1:pos:R:3:initial_magmoms:R:1 pbc="T T T"
Si      -1.28767020       1.11131466      -1.46389542       0.00000000
Si      -1.28767020      -1.60368534       1.25110458       0.00000000
Si       1.42732980      -1.60368534      -1.46389542       0.00000000
Si       0.66989910       1.75067544       1.81520556       0.00000000
Si       2.24720550       2.22730998       0.28418448       0.00000000
Si      -2.51160306       2.27543064      -0.11136930       0.00000000
Si       0.06982980       2.46881466      -2.82139542       0.00000000
Si      -1.15952220       3.41791350       1.26934938       0.00000000
Si      -2.64517020      -0.24618534      -2.82139542       0.00000000
Si       0.06982980      -2.96118534       2.60860458       0.00000000
