10
Lattice="16.28999089631971 0.0 0.0 0.0 16.28999089631971 0.0 0.0 0.0 34.51530692428229" Properties=species:S:1:pos:R:3:initial_magmoms:R:1 pbc="T T T"
Si       1.32016441       1.73977200      -0.67487817       0.00000000
Si       0.66886088      -1.75187547      -1.36342442       0.00000000
Si      -2.27294437       0.18728613      -0.42767941       0.00000000
Si       0.33669638      -0.50471307       2.30838502       0.00000000
Si      -2.78718709      -2.10948984      -0.45667228       0.00000000
Si       0.44884163       3.53247414       0.63446073       0.00000000
Si       0.76813051       2.00410983      -3.01746788       0.00000000
Si       3.53586505       1.10534166       0.04873564       0.00000000
Si      -3.06690268       1.94663871       1.00660497       0.00000000
Si       2.52609682      -2.80438866      -0.47413704       0.00000000
