10
Lattice="16.28999089631971 0.0 0.0 0.0 16.28999089631971 0.0 0.0 0.0 34.51530692428229" Properties=species:S:1:pos:R:3:initial_magmoms:R:1 pbc="T T T"
Si      -1.73095911      -0.82415997      -1.43863331       0.00000000
Si       1.90568565      -1.62266319      -0.07783206       0.00000000
Si       1.02006351       1.91733300      -1.30008879       0.00000000
Si      -0.88251075      -1.15230573       2.32415852       0.00000000
Si       1.42125363      -1.92632182       2.28215337       0.00000000
Si      -0.23327280      -2.08066631      -2.77955374       0.00000000
Si       2.47863753       0.66169980      -2.78069274       0.00000000
Si       1.05432138       1.28513439       3.42436906       0.00000000
Si      -3.26823012      -1.99108109       0.05805478       0.00000000
Si       1.10832273      -3.52961036      -1.22032387       0.00000000
