10
Lattice="16.28999089631971 0.0 0.0 0.0 16.28999089631971 0.0 0.0 0.0 34.51530692428229" Properties=species:S:1:pos:R:3:initial_magmoms:R:1 pbc="T T T"
Si      -1.20528081      -1.55216400      -1.36356248       0.00000000
Si       1.53727101       1.16692112      -1.49668809       0.00000000
Si       0.22695228      -0.52518634       2.42187141       0.00000000
Si      -1.44767601       2.05550804      -0.45156401       0.00000000
Si       2.38571937       0.83877536       2.26610374       0.00000000
Si      -2.38591159      -0.07405108      -2.85186334       0.00000000
Si      -1.95615207       0.18930935       3.21765677       0.00000000
Si      -2.99519343      -2.36231457       0.08394127       0.00000000
Si       3.26823012       1.99108109      -0.05805478       0.00000000
Si       0.31438071       2.66824010      -2.84005910       0.00000000
