10
Lattice="16.28999089631971 0.0 0.0 0.0 16.28999089631971 0.0 0.0 0.0 34.51530692428229" Properties=species:S:1:pos:R:3:initial_magmoms:R:1 pbc="T T T"
Si      -1.18446219      -1.49651343       1.38843564       0.00000000
Si       1.54942335       1.28264202       1.29261419       0.00000000
Si      -1.80742437       0.45937800      -1.58974141       0.00000000
Si       0.46550304      -2.29242654      -1.98121424       0.00000000
Si       1.47027024      -0.23566743      -2.75811972       0.00000000
Si      -1.93764663      -1.83299967      -2.13881122       0.00000000
Si      -0.50748237       0.92681955      -3.38747218       0.00000000
Si       3.20450364       0.83627973      -1.35804003       0.00000000
Si      -2.38198896      -0.06353100       2.83775490       0.00000000
Si      -3.11479461      -2.23563960      -0.03582691       0.00000000
