10
Lattice="16.28999089631971 0.0 0.0 0.0 16.28999089631971 0.0 0.0 0.0 34.51530692428229" Properties=species:S:1:pos:R:3:initial_magmoms:R:1 pbc="T T T"
Si      -1.45073853       1.27959579       1.31624197       0.00000000
Si      -1.37210670      -1.34314308      -1.37143197       0.00000000
Si       1.34579835       1.37394747      -1.37167358       0.00000000
Si       1.29090105      -1.30886892       1.63933993       0.00000000
Si       2.68741017      -2.69241120       0.02298721       0.00000000
Si      -2.72435100      -2.70065394       0.01114845       0.00000000
Si       2.70070281       2.72914515       0.01311582       0.00000000
Si      -0.01464471      -2.69967654      -2.73192259       0.00000000
Si       2.69970912       0.01492164      -2.73306159       0.00000000
Si      -2.72879491       0.01749546      -2.73185355       0.00000000
