10
Lattice="16.28999089631971 0.0 0.0 0.0 16.28999089631971 0.0 0.0 0.0 34.51530692428229" Properties=species:S:1:pos:R:3:initial_magmoms:R:1 pbc="T T T"
Si       2.23938630      -0.68970231       0.10647978       0.00000000
Si      -1.07823510       0.10803528       2.09908408       0.00000000
Si       0.37892169       2.34650934      -0.03917490       0.00000000
Si      -1.02765465      -1.05391413      -1.94552539       0.00000000
Si       2.94221835       0.53294364      -1.74716581       0.00000000
Si      -1.79600508      -2.05006392       2.37675988       0.00000000
Si      -2.90771613       1.47378888       1.60599813       0.00000000
Si      -3.08618937       1.86947298      -0.69914245       0.00000000
Si       1.19738016       2.88087021       2.12600603       0.00000000
Si       2.17339551       2.74361067      -1.44011747       0.00000000
