10
Lattice="16.28999089631971 0.0 0.0 0.0 16.28999089631971 0.0 0.0 0.0 34.51530692428229" Properties=species:S:1:pos:R:3:initial_magmoms:R:1 pbc="T T T"
Si      -1.28780595       1.22911308       1.72614598       0.00000000
Si       1.27933515      -1.58992029       1.62473995       0.00000000
Si       1.07792559       1.45052676      -1.88377747       0.00000000
Si      -1.19768967      -1.32230817      -1.91069943       0.00000000
Si       0.36764901       3.62437839      -1.29108029       0.00000000
Si      -3.02717070       0.04344543      -2.40378538       0.00000000
Si       0.38449287       2.27214549       3.11176862       0.00000000
Si      -2.38363425      -0.38972196       3.11494058       0.00000000
Si       1.79652636      -3.57094719       0.39640852       0.00000000
Si      -3.17571921       2.26271358      -1.10014151       0.00000000
