10
Lattice="16.28999089631971 0.0 0.0 0.0 16.28999089631971 0.0 0.0 0.0 34.51530692428229" Properties=species:S:1:pos:R:3:initial_magmoms:R:1 pbc="T T T"
Si       1.32704856       1.39178502      -1.37892180       0.00000000
Si       0.57824613      -1.54732194       1.73084006       0.00000000
Si      -1.45368702      -1.24266636      -1.51094292       0.00000000
Si      -0.04139289      -0.51754959       3.74266940       0.00000000
Si      -0.01141929      -2.56670127      -2.92976443       0.00000000
Si       2.12441148       3.29873219      -0.23642998       0.00000000
Si       3.00346875      -1.94639436       1.73263486       0.00000000
Si       2.69838963       0.15938136      -2.94015355       0.00000000
Si      -3.28033359      -2.28349962      -0.41753190       0.00000000
Si      -2.73584034       0.14957478      -2.94149965       0.00000000
