10
Lattice="16.28999089631971 0.0 0.0 0.0 16.28999089631971 0.0 0.0 0.0 34.51530692428229" Properties=species:S:1:pos:R:3:initial_magmoms:R:1 pbc="T T T"
Si       0.53773290      -2.09552931      -0.89663914       0.00000000
Si       1.98260703       0.41938605       1.24331108       0.00000000
Si      -1.61388288      -0.24019605       1.73653509       0.00000000
Si      -0.71513100       1.37754756      -1.86299925       0.00000000
Si      -1.55242071      -2.87243199      -1.68258764       0.00000000
Si       1.99896219       2.67198354       1.68365761       0.00000000
Si       0.96514992       2.99633373      -2.04831203       0.00000000
Si       1.82104281      -0.85392180       3.21451588       0.00000000
Si       2.47078575      -1.82537595      -2.27314487       0.00000000
Si      -0.09549198       0.34777521      -3.87482858       0.00000000
