10
Lattice="16.28999089631971 0.0 0.0 0.0 16.28999089631971 0.0 0.0 0.0 34.51530692428229" Properties=species:S:1:pos:R:3:initial_magmoms:R:1 pbc="T T T"
Si      -0.49868577       1.00217709      -2.23334870       0.00000000
Si       1.75459590       0.67746852       1.70992378       0.00000000
Si       1.27164627      -2.11595534      -0.69462094       0.00000000
Si      -2.35221084      -0.46196811       0.94092231       0.00000000
Si       1.89193689      -1.53738504       2.57546461       0.00000000
Si      -0.36991332       3.73549248       0.82736688       0.00000000
Si      -1.36184400      -0.78552009      -3.61068279       0.00000000
Si       3.28647492       2.28188691       0.55269392       0.00000000
Si      -2.29050432      -1.19004966       3.19998492       0.00000000
Si       0.80200557       1.74405627       3.66873757       0.00000000
