10
Lattice="16.28999089631971 0.0 0.0 0.0 16.28999089631971 0.0 0.0 0.0 34.51530692428229" Properties=species:S:1:pos:R:3:initial_magmoms:R:1 pbc="T T T"
Si      -0.49896270       2.20081158       0.65109711       0.00000000
Si      -0.70683939      -0.46372743      -2.23524704       0.00000000
Si      -1.52920746      -1.11873204       1.51881241       0.00000000
Si       2.39984280      -0.40428522       0.19335486       0.00000000
Si      -1.57380948      -2.49846246      -1.56250882       0.00000000
Si       1.12236471       2.15282124       2.41873052       0.00000000
Si       2.86469424       1.77958476       0.89111669       0.00000000
Si       0.20386935       3.42345753      -1.20254848       0.00000000
Si      -3.15327159      -1.88107146       0.02409170       0.00000000
Si      -0.46340163      -3.09412260       2.07171343       0.00000000
