10
Lattice="16.28999089631971 0.0 0.0 0.0 16.28999089631971 0.0 0.0 0.0 34.51530692428229" Properties=species:S:1:pos:R:3:initial_magmoms:R:1 pbc="T T T"
Si      -0.98994330      -1.61935632       1.43775804       0.00000000
Si       1.69751574       1.05854049       1.37238256       0.00000000
Si      -1.55533662       1.89682389      -0.16991895       0.00000000
Si       0.33866910      -1.25165844      -2.47764818       0.00000000
Si       0.31068288       2.13977295      -2.28253304       0.00000000
Si       2.66219325      -0.80216847      -2.28974674       0.00000000
Si      -2.23831116      -0.18319734       2.82293402       0.00000000
Si       2.62899423       1.62276093      -1.88678031       0.00000000
Si      -2.58655878      -2.71849149      -0.15241968       0.00000000
Si       0.48079935       2.54241288       2.80226624       0.00000000
