10
Lattice="16.28999089631971 0.0 0.0 0.0 16.28999089631971 0.0 0.0 0.0 34.51530692428229" Properties=species:S:1:pos:R:3:initial_magmoms:R:1 pbc="T T T"
Si      -0.01635516      -2.25259749      -0.44034653       0.00000000
Si      -1.03438242       1.28153986      -1.63185011       0.00000000
Si       2.22184197       0.78381227      -0.01442741       0.00000000
Si      -0.53318799       0.74096795       2.19862628       0.00000000
Si       1.92741651       0.70825662       2.28094533       0.00000000
Si      -2.76135048       1.60524496       1.54601049       0.00000000
Si       2.25328167      -2.67362883      -0.91389681       0.00000000
Si       0.43302078       3.11809238      -1.89254437       0.00000000
Si      -3.22815672       1.55612247      -0.80886667       0.00000000
Si      -1.99896219      -2.67198354      -1.68365761       0.00000000
