10
Lattice="16.28999089631971 0.0 0.0 0.0 16.28999089631971 0.0 0.0 0.0 34.51530692428229" Properties=species:S:1:pos:R:3:initial_magmoms:R:1 pbc="T T T"
Si       1.35545510       1.33729008      -1.36099799       0.00000000
Si      -1.35736425       1.35654486       1.35579653       0.00000000
Si       1.35707555      -1.35800795       1.35552041       0.00000000
Si      -1.34148150      -1.36833949      -1.37969839       0.00000000
Si      -2.66898618       0.09648893      -2.73012779       0.00000000
Si       2.67897914      -0.04331837      -2.74605661       0.00000000
Si      -2.71505430      -0.00080310       2.71238691       0.00000000
Si      -0.00003258       2.71457700       2.71287013       0.00000000
Si       2.71485786      -2.71278577      -0.00572954       0.00000000
Si       0.00017919      -2.71548991       2.71297367       0.00000000
