10
Lattice="16.28999089631971 0.0 0.0 0.0 16.28999089631971 0.0 0.0 0.0 34.51530692428229" Properties=species:S:1:pos:R:3:initial_magmoms:R:1 pbc="T T T"
Si       1.91737372       0.76095477       1.07950134       0.00000000
Si      -0.35836371       0.90119538      -2.12314126       0.00000000
Si      -1.66583073       0.99207729       1.40798370       0.00000000
Si      -0.45670481      -2.18199663      -1.09071882       0.00000000
Si      -2.77151448      -1.04723523       1.22795176       0.00000000
Si      -0.98673321      -2.22145101       2.33030225       0.00000000
Si      -2.73157140      -1.77354117      -1.03908390       0.00000000
Si      -2.53504884       0.05216058      -2.41006717       0.00000000
Si       3.56201212       0.39073194      -0.45836353       0.00000000
Si      -0.15474360      -3.61942623       0.64612691       0.00000000
