10
Lattice="16.28999089631971 0.0 0.0 0.0 16.28999089631971 0.0 0.0 0.0 34.51530692428229" Properties=species:S:1:pos:R:3:initial_magmoms:R:1 pbc="T T T"
Si       1.82948103      -1.36575360       0.49308595       0.00000000
Si      -1.98017982      -1.14753276       0.48048786       0.00000000
Si      -0.17847324       0.39568410      -2.30514058       0.00000000
Si      -0.14854851       2.21926815       1.30364387       0.00000000
Si       1.44686151       2.05560252      -2.49017724       0.00000000
Si      -2.36787368       2.69535969       0.47738148       0.00000000
Si       2.90771613      -1.47378888      -1.60599813       0.00000000
Si      -2.15967119      -2.67458994      -1.34133461       0.00000000
Si      -3.44402561       0.64430208       1.24766001       0.00000000
Si       1.11171105      -3.52385280       0.77076175       0.00000000
