10
Lattice="16.28999089631971 0.0 0.0 0.0 16.28999089631971 0.0 0.0 0.0 34.185847837958455" Properties=species:S:1:pos:R:3:initial_magmoms:R:1 pbc="T T T"
Si      -1.35621465      -1.33231838       1.35705585       0.00000000
Si      -1.43896785       1.20852252      -1.39819170       0.00000000
Si       1.35506267       1.38574143       1.35695329       0.00000000
Si       1.34331758      -1.41411372      -1.36092911       0.00000000
Si       0.26537896       2.19871017      -2.72430733       0.00000000
Si       2.02434221       0.38361321      -2.94935289       0.00000000
Si      -0.00536254      -2.69141408       2.71467918       0.00000000
Si      -2.70448908       2.72007162      -0.01568106       0.00000000
Si       2.71205714       0.02399517       2.71324338       0.00000000
Si      -2.74353621      -2.68231859      -0.02092517       0.00000000
