10
Lattice="16.28999089631971 0.0 0.0 0.0 16.28999089631971 0.0 0.0 0.0 34.185847837958455" Properties=species:S:1:pos:R:3:initial_magmoms:R:1 pbc="T T T"
Si       1.80899798      -0.76711239       1.32039492       0.00000000
Si      -0.45258670       2.27423061      -0.47826028       0.00000000
Si      -2.10103274      -0.88233156       0.69636611       0.00000000
Si       0.60391265      -0.84768273      -2.15589751       0.00000000
Si      -2.13639833       1.59340635      -2.05627990       0.00000000
Si      -0.30695736       0.89883333      -3.45372977       0.00000000
Si      -1.39500620      -3.10919085       1.34880338       0.00000000
Si      -3.52964945      -0.01358586      -1.06499231       0.00000000
Si       2.23164203      -2.99695275       0.55011897       0.00000000
Si       1.12933031      -0.73977777       3.53536562       0.00000000
