10
Lattice="16.28999089631971 0.0 0.0 0.0 16.28999089631971 0.0 0.0 0.0 34.185847837958455" Properties=species:S:1:pos:R:3:initial_magmoms:R:1 pbc="T T T"
Si      -2.30663142       0.35442153      -0.00652950       0.00000000
Si       0.91217484       2.14972614      -0.56105845       0.00000000
Si       0.59872266      -0.52193160       2.27671037       0.00000000
Si       0.29833506      -2.07193229      -1.25831339       0.00000000
Si       3.16130256       1.54181592      -0.24863381       0.00000000
Si      -3.01122279      -1.05228024       1.79345895       0.00000000
Si       1.49258754      -3.33960380       0.34828561       0.00000000
Si       0.35916192      -2.87965565       2.35848296       0.00000000
Si       2.17232037      -1.73095096      -2.60780049       0.00000000
Si      -0.61475202       0.95544108       3.67672418       0.00000000
