10
Lattice="16.28999089631971 0.0 0.0 0.0 16.28999089631971 0.0 0.0 0.0 34.185847837958455" Properties=species:S:1:pos:R:3:initial_magmoms:R:1 pbc="T T T"
Si      -0.37804203      -2.23365941      -0.52345399       0.00000000
Si      -2.17181538       0.86828958       0.33796148       0.00000000
Si       0.94169232       0.64231470       2.09313226       0.00000000
Si       1.43809749       0.37100475      -2.04069114       0.00000000
Si      -1.47835008       3.09443211       0.55654591       0.00000000
Si       1.75772358      -3.26949164      -0.04375791       0.00000000
Si      -3.42721563       0.12610089      -1.48349570       0.00000000
Si       0.00721647       2.88121230       2.42090635       0.00000000
Si       1.83834279       2.76003099      -1.91741691       0.00000000
Si       3.24832374       0.28789317       2.09966176       0.00000000
