10
Lattice="16.28999089631971 0.0 0.0 0.0 16.28999089631971 0.0 0.0 0.0 34.185847837958455" Properties=species:S:1:pos:R:3:initial_magmoms:R:1 pbc="T T T"
Si      -0.69312321       1.70364078       1.49330704       0.00000000
Si       2.17049589      -0.69669072       0.70744233       0.00000000
Si      -1.32131448      -2.01583863       0.18118509       0.00000000
Si      -0.62569890       1.10260494      -2.16017075       0.00000000
Si      -2.77342137       2.40525108       0.56170798       0.00000000
Si      -1.42250796      -0.78736086      -3.35021496       0.00000000
Si      -2.80688103      -1.80261882      -1.68317534       0.00000000
Si       2.83196763      -2.45943162      -0.70111795       0.00000000
Si       0.85296069       3.49658334       1.29868690       0.00000000
Si       3.66577128       1.18182321       0.62949855       0.00000000
