10
Lattice="16.28999089631971 0.0 0.0 0.0 16.28999089631971 0.0 0.0 0.0 34.185847837958455" Properties=species:S:1:pos:R:3:initial_magmoms:R:1 pbc="T T T"
Si       1.07083944       2.08050993      -0.35375535       0.00000000
Si       0.13971933      -0.71785143       2.26942878       0.00000000
Si       1.45637487      -1.62139257      -1.04068616       0.00000000
Si      -2.30293359       0.23319135      -0.74487585       0.00000000
Si       0.50393115      -1.28738241      -3.20451480       0.00000000
Si       3.27489273       1.48902003      -0.01326412       0.00000000
Si      -1.51097895      -2.40883488       2.45081899       0.00000000
Si      -2.92069926      -2.01885228      -1.27875654       0.00000000
Si       3.59142372      -0.56969388      -1.01716629       0.00000000
Si      -3.39716547       1.44555831       0.94609387       0.00000000
