10
Lattice="16.28999089631971 0.0 0.0 0.0 16.28999089631971 0.0 0.0 0.0 34.185847837958455" Properties=species:S:1:pos:R:3:initial_magmoms:R:1 pbc="T T T"
Si      -0.59390082       1.31818680       1.82453390       0.00000000
Si      -1.47862701      -0.84747096      -1.60246251       0.00000000
Si       1.74288339      -1.43125569       0.76805387       0.00000000
Si       1.20790350       1.80514377      -1.65045947       0.00000000
Si       0.80552421      -2.85040791      -0.76340459       0.00000000
Si      -2.42038449       1.42403922      -1.78932246       0.00000000
Si       1.49555232       2.47832802       2.01429965       0.00000000
Si      -2.55008547      -2.45685780       0.21437957       0.00000000
Si       2.79386532       2.21385987       0.01695619       0.00000000
Si      -0.77636511       3.22297650      -1.85769420       0.00000000
