10
Lattice="16.28999089631971 0.0 0.0 0.0 16.28999089631971 0.0 0.0 0.0 34.185847837958455" Properties=species:S:1:pos:R:3:initial_magmoms:R:1 pbc="T T T"
Si      -0.79689051      -1.69702704       1.47084693       0.00000000
Si      -2.13576561       1.03583223      -0.47969608       0.00000000
Si       0.71882883      -1.34100909      -1.94876535       0.00000000
Si       1.78893522       1.48545252       0.88510628       0.00000000
Si      -1.75772358       3.26949164       0.04375791       0.00000000
Si      -2.22472530      -2.99317347       0.09732716       0.00000000
Si      -0.92519055      -3.13994637      -1.88039361       0.00000000
Si       0.90129312      -3.24579879       1.73346276       0.00000000
Si       2.98318770       0.21778101       2.49170528       0.00000000
Si       0.49550922       0.34909470      -3.99369553       0.00000000
