10
Lattice="16.28999089631971 0.0 0.0 0.0 16.28999089631971 0.0 0.0 0.0 34.185847837958455" Properties=species:S:1:pos:R:3:initial_magmoms:R:1 pbc="T T T"
Si      -2.31412482      -0.25062165       0.24323244       0.00000000
Si       0.94403808       1.89115497       1.03357550       0.00000000
Si       0.91357578      -1.72740789       1.31748913       0.00000000
Si       0.63959427      -0.32630499      -2.26036952       0.00000000
Si       2.33777790      -1.87507674      -1.99775369       0.00000000
Si       0.83267964       1.12086603       3.34850567       0.00000000
Si      -3.22499483       1.49589441      -1.05459981       0.00000000
Si       2.30133717      -0.64039248       2.87106585       0.00000000
Si       1.86025284      -3.25614294      -0.14905038       0.00000000
Si      -2.91803747       0.59706108       2.39912996       0.00000000
