10
Lattice="16.28999089631971 0.0 0.0 0.0 16.28999089631971 0.0 0.0 0.0 34.185847837958455" Properties=species:S:1:pos:R:3:initial_magmoms:R:1 pbc="T T T"
Si      -1.87398531      -0.34098132       1.34948710       0.00000000
Si       1.01260269       2.17237738       0.27861482       0.00000000
Si       1.53823212      -1.89524280      -0.17916813       0.00000000
Si      -1.23916401       1.36574545      -1.61234223       0.00000000
Si       1.72524132      -0.30141291      -2.34296258       0.00000000
Si      -0.67973283      -1.60865283       2.95608610       0.00000000
Si      -0.01303200       0.79302815      -3.55495412       0.00000000
Si       3.31332084       1.64961499       0.05650924       0.00000000
Si      -0.01897785       3.44348608      -1.44825007       0.00000000
Si      -2.17232037       1.73095096       2.60780049       0.00000000
