10
Lattice="16.28999089631971 0.0 0.0 0.0 16.28999089631971 0.0 0.0 0.0 34.185847837958455" Properties=species:S:1:pos:R:3:initial_magmoms:R:1 pbc="T T T"
Si       0.49177881       1.26647582      -1.93136474       0.00000000
Si       1.49262012      -1.84044161       0.23198529       0.00000000
Si      -2.24508780      -0.78033498       0.31122813       0.00000000
Si       0.86455917       1.49287424       1.74898314       0.00000000
Si      -1.69342695      -2.48560706       1.88025687       0.00000000
Si       1.58837274      -0.41472222      -3.15340692       0.00000000
Si      -1.18974015       2.66213786       2.15671797       0.00000000
Si      -3.08133495       1.03383833       1.77195604       0.00000000
Si       0.00992061      -3.67453271       0.69253729       0.00000000
Si       2.89540089       2.26347269       0.80935040       0.00000000
