10
Lattice="16.28999089631971 0.0 0.0 0.0 16.28999089631971 0.0 0.0 0.0 34.185847837958455" Properties=species:S:1:pos:R:3:initial_magmoms:R:1 pbc="T T T"
Si      -1.57817520       1.82634032       0.08259305       0.00000000
Si      -0.84235590      -1.72151484       1.47589417       0.00000000
Si       1.84013469       0.96121426       1.40108523       0.00000000
Si      -0.41498775      -1.22893782      -2.27065947       0.00000000
Si      -1.99932057      -0.28462281       2.88386986       0.00000000
Si      -1.80289575       2.29050758      -2.37896029       0.00000000
Si      -2.74406679      -2.57722854       0.22008865       0.00000000
Si      -3.38125014       0.95720203       1.40105105       0.00000000
Si       0.73049247       2.43066674       2.87727199       0.00000000
Si       3.23894070       2.19525995      -0.10259179       0.00000000
