10
Lattice="16.28999089631971 0.0 0.0 0.0 16.28999089631971 0.0 0.0 0.0 34.185847837958455" Properties=species:S:1:pos:R:3:initial_magmoms:R:1 pbc="T T T"
Si      -1.31707908       1.12366791      -1.56666687       0.00000000
Si      -1.93921047      -0.65881647       1.12748852       0.00000000
Si       0.82932390       1.89830628       1.11105196       0.00000000
Si       1.63813869      -1.87253550      -0.27392831       0.00000000
Si      -0.60709572      -2.06483895       2.48140269       0.00000000
Si       2.15972820       0.62773515       2.49783925       0.00000000
Si      -1.30290678      -0.57599811      -3.22929651       0.00000000
Si      -0.10603161       3.11793858      -1.77537159       0.00000000
Si       3.45056409      -0.86273469       0.99771555       0.00000000
Si       0.69572961      -3.50236629       1.11587900       0.00000000
