10
Lattice="16.28999089631971 0.0 0.0 0.0 16.28999089631971 0.0 0.0 0.0 34.185847837958455" Properties=species:S:1:pos:R:3:initial_magmoms:R:1 pbc="T T T"
Si      -1.35552348       1.35840681       1.35297406       0.00000000
Si      -1.35524655      -1.35835794      -1.35758915       0.00000000
Si       1.35931905       1.35663120      -1.35810194       0.00000000
Si       1.35933534      -1.35948195       1.36254610       0.00000000
Si      -2.69710272       0.00288333       2.71011879       0.00000000
Si      -2.71168227       2.71314837      -0.00105976       0.00000000
Si       0.00241092       2.69622306       2.72871590       0.00000000
Si      -2.71292031      -0.00109143      -2.71510992       0.00000000
Si       0.00250866       2.71322982      -2.71504155       0.00000000
Si       2.71603170       2.71303434      -0.00054697       0.00000000
