10
Lattice="16.28999089631971 0.0 0.0 0.0 16.28999089631971 0.0 0.0 0.0 34.185847837958455" Properties=species:S:1:pos:R:3:initial_magmoms:R:1 pbc="T T T"
Si      -1.15753482      -1.47849669       1.43433642       0.00000000
Si       1.38078927      -1.31152419      -1.43563548       0.00000000
Si      -1.34708526       1.39219227      -1.44787402       0.00000000
Si       0.77300937       1.91542707       1.29711435       0.00000000
Si       0.68820363       0.80772336       3.36286373       0.00000000
Si      -2.68877853      -2.60196912      -0.02994682       0.00000000
Si       2.67322158       2.72880306       0.01193087       0.00000000
Si      -2.71813311       2.70756090      -0.02724614       0.00000000
Si       0.00983916      -2.66351274      -2.81404382       0.00000000
Si      -2.70501966       0.05437602      -2.82361587       0.00000000
