10
Lattice="16.28999089631971 0.0 0.0 0.0 16.28999089631971 0.0 0.0 0.0 34.185847837958455" Properties=species:S:1:pos:R:3:initial_magmoms:R:1 pbc="T T T"
Si       1.35853424      -1.35138582      -1.35793101       0.00000000
Si      -1.35675042      -1.35490446       1.35642683       0.00000000
Si       1.35831269       1.35982404       1.35666613       0.00000000
Si      -1.35619656       1.36042677      -1.36401609       0.00000000
Si       0.00057337      -2.71231758       2.71350319       0.00000000
Si       0.02110715       2.69558775      -2.73188835       0.00000000
Si      -2.71455450       0.00211770       2.71367412       0.00000000
Si      -2.71481514      -2.71349046       0.00020512       0.00000000
Si       2.71552870      -2.71313208      -0.00164092       0.00000000
Si       2.71541467       0.00234576       2.71374249       0.00000000
