10
Lattice="16.28999089631971 0.0 0.0 0.0 16.28999089631971 0.0 0.0 0.0 34.185847837958455" Properties=species:S:1:pos:R:3:initial_magmoms:R:1 pbc="T T T"
Si      -0.08480574      -1.10770371       2.06574938       0.00000000
Si       1.90021221       0.81337599      -1.28518348       0.00000000
Si      -0.77300937      -1.91542707      -1.29711435       0.00000000
Si      -1.84495653       1.70145792       0.12453911       0.00000000
Si      -2.12009463      -0.52323480      -2.74498837       0.00000000
Si       0.60758442       2.19743955      -2.75066323       0.00000000
Si      -0.83243529       3.37129695      -1.32753977       0.00000000
Si      -3.49114248       0.79213383      -1.32436049       0.00000000
Si      -1.93054419      -3.39392376       0.13722207       0.00000000
Si       3.60711099       1.91021427       0.04697138       0.00000000
