10
Lattice="16.28999089631971 0.0 0.0 0.0 16.28999089631971 0.0 0.0 0.0 34.185847837958455" Properties=species:S:1:pos:R:3:initial_magmoms:R:1 pbc="T T T"
Si       2.25458487       0.14299362      -0.54027344       0.00000000
Si      -0.93529035       1.28303298      -1.69852480       0.00000000
Si      -1.21104747      -1.99427067       0.20870472       0.00000000
Si       2.79226890      -0.37385550       1.64377515       0.00000000
Si       0.93535551      -1.21963230       2.88642355       0.00000000
Si      -2.94562296      -0.27956898       1.46968461       0.00000000
Si       0.10603161      -3.11793858       1.77537159       0.00000000
Si      -0.88964577       3.44983104      -0.77506198       0.00000000
Si      -3.02143662       0.29014119      -2.04985295       0.00000000
Si      -1.97403849       1.49928273       2.78939722       0.00000000
