10
Lattice="16.28999089631971 0.0 0.0 0.0 16.28999089631971 0.0 0.0 0.0 34.185847837958455" Properties=species:S:1:pos:R:3:initial_magmoms:R:1 pbc="T T T"
Si      -1.20438486       1.40843340       1.47902760       0.00000000
Si       1.50291540      -1.30579011       1.45442062       0.00000000
Si      -1.89294687      -0.94170861      -1.45653813       0.00000000
Si       1.05770970       1.94830029      -1.33941735       0.00000000
Si      -2.45516201       2.77516440       0.00274513       0.00000000
Si      -2.57397150      -2.73943554       0.13188566       0.00000000
Si      -2.56222641       0.06041961       2.84976805       0.00000000
Si       0.15371244      -2.65948422       2.84840062       0.00000000
Si      -0.88716969      -0.93198348      -3.72179623       0.00000000
Si      -3.65191012       0.87338835      -1.23149257       0.00000000
