10
Lattice="16.28999089631971 0.0 0.0 0.0 16.28999089631971 0.0 0.0 0.0 34.185847837958455" Properties=species:S:1:pos:R:3:initial_magmoms:R:1 pbc="T T T"
Si       1.33556823       1.36797134       1.36415283       0.00000000
Si      -1.35925389       1.35374040      -1.36162308       0.00000000
Si       1.35677781      -1.36278882      -1.36100773       0.00000000
Si      -1.35881406      -1.38328164       1.37892113       0.00000000
Si       2.55611277      -0.12957066       2.70211929       0.00000000
Si      -2.71529865       2.71010933      -0.00133325       0.00000000
Si       2.71586880       2.71297637      -0.00577741       0.00000000
Si      -0.00017919       2.71149398      -2.71784479       0.00000000
Si      -2.71420722      -2.71658556      -0.00041023       0.00000000
Si       2.71438641      -0.00349660      -2.71791317       0.00000000
