10
Lattice="16.28999089631971 0.0 0.0 0.0 16.28999089631971 0.0 0.0 0.0 34.185847837958455" Properties=species:S:1:pos:R:3:initial_magmoms:R:1 pbc="T T T"
Si       1.01618649      -1.66643442      -1.25790316       0.00000000
Si      -1.73827332       1.09444106      -1.21199154       0.00000000
Si       1.63453860       1.80487403       0.03685236       0.00000000
Si      -0.18700920      -1.59382989       2.16379445       0.00000000
Si      -1.72524132       0.30141291       2.34296258       0.00000000
Si       1.58807952       1.95102791       2.39947181       0.00000000
Si       2.15311446      -0.08938323      -2.72946799       0.00000000
Si      -2.96440533       1.66715837       0.73062035       0.00000000
Si      -0.71263863       2.47379030       2.62157739       0.00000000
Si      -0.46275003       2.71656017      -2.56370072       0.00000000
