10
Lattice="16.28999089631971 0.0 0.0 0.0 16.28999089631971 0.0 0.0 0.0 34.185847837958455" Properties=species:S:1:pos:R:3:initial_magmoms:R:1 pbc="T T T"
Si       1.01985174      -1.58565231       1.43590897       0.00000000
Si      -0.84543471      -0.73806732      -2.09285877       0.00000000
Si      -1.70334756       1.18892565       1.18771958       0.00000000
Si       1.48269951       1.83409110      -0.46055200       0.00000000
Si       2.89033470       1.28089899       1.49696493       0.00000000
Si       1.14207561      -1.82584836      -2.86436542       0.00000000
Si      -2.25500841       2.89419773      -0.38130916       0.00000000
Si      -0.00992061       3.67453271      -0.69253729       0.00000000
Si       1.70160453      -0.25127325       3.32423370       0.00000000
Si      -0.53509392      -3.42176337       1.53798797       0.00000000
