10
Lattice="16.28999089631971 0.0 0.0 0.0 16.28999089631971 0.0 0.0 0.0 34.185847837958455" Properties=species:S:1:pos:R:3:initial_magmoms:R:1 pbc="T T T"
Si       1.35567009       1.35739501       1.35738403       0.00000000
Si      -1.35769005       1.35748949      -1.35728148       0.00000000
Si       1.35736425      -1.35792386      -1.35724729       0.00000000
Si      -1.35760860      -1.35929222       1.35690543       0.00000000
Si       2.71259837      -0.00103769      -2.71408435       0.00000000
Si      -0.00032580       2.71401318      -2.71367412       0.00000000
Si       0.00120546      -2.71470167       2.71360575       0.00000000
Si       0.00148239       2.71647297       2.71213575       0.00000000
Si      -2.71456560       2.71499058       0.00006837       0.00000000
Si      -2.71500543      -2.71489715      -0.00013674       0.00000000
