10
Lattice="16.28999089631971 0.0 0.0 0.0 16.28999089631971 0.0 0.0 0.0 34.185847837958455" Properties=species:S:1:pos:R:3:initial_magmoms:R:1 pbc="T T T"
Si      -1.37109672      -1.33783254       1.37013878       0.00000000
Si       1.34482095       1.37748240       1.36654926       0.00000000
Si      -1.40416542       1.20599757      -1.47109990       0.00000000
Si       1.26552123      -1.51154910      -1.38251065       0.00000000
Si      -2.69500131       2.69646741       0.02902380       0.00000000
Si      -2.72894967      -2.69003286       0.01320258       0.00000000
Si       2.70448908      -2.72007162       0.01568106       0.00000000
Si      -0.01379763      -2.69643483       2.73077047       0.00000000
Si       2.70101751       0.01705563       2.73056535       0.00000000
Si       2.72212467       2.71264338      -0.00132299       0.00000000
