10
Lattice="16.28999089631971 0.0 0.0 0.0 16.28999089631971 0.0 0.0 0.0 34.185847837958455" Properties=species:S:1:pos:R:3:initial_magmoms:R:1 pbc="T T T"
Si       1.35689184      -1.35720135       1.35697380       0.00000000
Si      -1.35811359       1.35835794       1.35676869       0.00000000
Si       1.35575154       1.35933534      -1.35871728       0.00000000
Si      -1.35954711      -1.35718506      -1.35776008       0.00000000
Si      -2.71324611       0.00200367      -2.71466551       0.00000000
Si       2.71344159      -0.00055386       2.71473388       0.00000000
Si       2.71469592      -2.71422351      -0.00027349       0.00000000
Si      -0.00140094       2.71476108       2.71432365       0.00000000
Si      -2.71516833      -2.71450044      -0.00010256       0.00000000
Si      -2.71492398       2.71495656      -0.00017093       0.00000000
