10
Lattice="16.28999089631971 0.0 0.0 0.0 16.28999089631971 0.0 0.0 0.0 34.185847837958455" Properties=species:S:1:pos:R:3:initial_magmoms:R:1 pbc="T T T"
Si      -1.98350298       0.52836615       1.13209917       0.00000000
Si       0.61714895      -1.57525929      -1.62629006       0.00000000
Si       0.79656538      -1.30743540       1.79465546       0.00000000
Si       1.16064199       2.05895826       0.14091414       0.00000000
Si       2.81268746      -0.49510197      -2.12724976       0.00000000
Si      -1.18661247       1.27216755       3.24871712       0.00000000
Si      -3.30704919      -1.41029046       0.88172188       0.00000000
Si       0.88514388       0.12807198       3.64223064       0.00000000
Si      -0.72107685      -1.08794394      -3.57416657       0.00000000
Si      -0.50402889      -3.62942829      -1.23021261       0.00000000
