10
Lattice="16.28999089631971 0.0 0.0 0.0 16.28999089631971 0.0 0.0 0.0 34.185847837958455" Properties=species:S:1:pos:R:3:initial_magmoms:R:1 pbc="T T T"
Si      -0.81251262      -0.56783682       2.11583168       0.00000000
Si       1.32354621       1.93865661       0.25037729       0.00000000
Si       1.21720509      -1.98550665      -0.40927320       0.00000000
Si      -1.74527802      -0.57068757      -2.65709651       0.00000000
Si       2.67597459      -1.73566692       1.46014675       0.00000000
Si      -0.53659260       3.50296902      -0.06987591       0.00000000
Si       1.17869553      -1.20257667       3.27722813       0.00000000
Si       3.30704919       1.41029046      -0.88172188       0.00000000
Si      -2.35906893      -2.38485600       1.74535944       0.00000000
Si      -1.34811153       2.97795861      -2.20912491       0.00000000
