10
Lattice="16.28999089631971 0.0 0.0 0.0 16.28999089631971 0.0 0.0 0.0 34.185847837958455" Properties=species:S:1:pos:R:3:initial_magmoms:R:1 pbc="T T T"
Si       1.00248075       1.52700831      -1.47997455       0.00000000
Si       1.11054699      -2.09109843       0.13776904       0.00000000
Si      -0.48441573       0.78734457       2.20372354       0.00000000
Si      -2.01101679      -1.21393080      -0.96325517       0.00000000
Si      -2.47511889      -0.91344546       1.49494796       0.00000000
Si      -0.51373773      -1.74702105      -2.78033656       0.00000000
Si       1.84011744       1.58728131       2.38166098       0.00000000
Si      -1.06927560       2.67110388      -1.87348807       0.00000000
Si       0.91390225       0.09150093      -3.32754973       0.00000000
Si       0.04826727      -2.70932022       2.20919328       0.00000000
