10
Lattice="16.28999089631971 0.0 0.0 0.0 16.28999089631971 0.0 0.0 0.0 34.185847837958455" Properties=species:S:1:pos:R:3:initial_magmoms:R:1 pbc="T T T"
Si      -1.63642824       0.25607880      -1.64252835       0.00000000
Si       1.49920128       1.81071495      -0.12918839       0.00000000
Si      -1.10056869       0.40456215       2.04530623       0.00000000
Si       0.80529615      -2.21977314       0.05975690       0.00000000
Si      -3.16550538      -1.05528249      -0.34756771       0.00000000
Si      -1.41372765       2.66843232       1.77212697       0.00000000
Si       2.90737404      -1.87331742      -1.11945040       0.00000000
Si       0.35562699       3.71519514       0.65127495       0.00000000
Si       3.05354421       1.51860267       1.68669649       0.00000000
Si      -3.09997071      -0.86938101       2.03819557       0.00000000
