10
Lattice="16.28999089631971 0.0 0.0 0.0 16.28999089631971 0.0 0.0 0.0 34.185847837958455" Properties=species:S:1:pos:R:3:initial_magmoms:R:1 pbc="T T T"
Si       1.75204881       0.86519448      -1.30989986       0.00000000
Si      -0.73104633      -1.68373440      -1.57767776       0.00000000
Si       1.52442376      -0.60453819       1.91933131       0.00000000
Si      -1.69238439       1.87639623      -0.06621802       0.00000000
Si       0.70739325       2.80777698      -2.11094310       0.00000000
Si       1.93255505      -0.73225179      -2.97205090       0.00000000
Si      -0.17992305      -1.59472584       3.24544694       0.00000000
Si      -2.76188805      -2.45433285      -0.63804502       0.00000000
Si      -1.66594572      -3.00861639       1.66129639       0.00000000
Si       1.61439994      -2.95042851      -2.13562529       0.00000000
