10
Lattice="16.28999089631971 0.0 0.0 0.0 16.28999089631971 0.0 0.0 0.0 34.185847837958455" Properties=species:S:1:pos:R:3:initial_magmoms:R:1 pbc="T T T"
Si      -1.35249354       1.35417141       1.36032402       0.00000000
Si      -1.35671265      -1.35640314      -1.35755496       0.00000000
Si       1.35834165       1.35824391      -1.35741822       0.00000000
Si       1.36080144      -1.35746199       1.35861472       0.00000000
Si       0.01405827       2.70386307       2.72358802       0.00000000
Si      -2.71352304       0.00019548      -2.71449458       0.00000000
Si      -2.71603170      -2.71303434       0.00054697       0.00000000
Si       0.00140094      -2.71476108      -2.71432365       0.00000000
Si       2.71407690       2.71552671      -0.00054697       0.00000000
Si       0.00135207       2.71555929      -2.71411853       0.00000000
