10
Lattice="16.28999089631971 0.0 0.0 0.0 16.28999089631971 0.0 0.0 0.0 34.185847837958455" Properties=species:S:1:pos:R:3:initial_magmoms:R:1 pbc="T T T"
Si       0.54651321       1.33213104       1.83246503       0.00000000
Si      -1.59444891      -1.76407668       0.02540010       0.00000000
Si      -1.12212036       1.73734479      -1.19305257       0.00000000
Si       2.12568210      -0.26575506      -1.06324883       0.00000000
Si       1.36142046       3.09588192       0.26559000       0.00000000
Si      -0.53134722       0.55475595      -3.50011999       0.00000000
Si       1.32879159      -1.00955646      -3.17986679       0.00000000
Si       3.00486969       1.93072338      -0.89351600       0.00000000
Si      -0.80726724      -3.51604989      -1.31441240       0.00000000
Si      -1.42675965      -2.92519530       2.08205604       0.00000000
