10
Lattice="16.28999089631971 0.0 0.0 0.0 16.28999089631971 0.0 0.0 0.0 34.185847837958455" Properties=species:S:1:pos:R:3:initial_magmoms:R:1 pbc="T T T"
Si      -1.34395758      -1.32372540       1.37745456       0.00000000
Si      -1.55398455       1.19172753      -1.32590569       0.00000000
Si       1.36754454       1.39333257       1.36819019       0.00000000
Si       1.25389084      -1.47724236      -1.49334464       0.00000000
Si       0.29314899       2.23267482      -2.53986326       0.00000000
Si       2.19080042       0.45206379      -2.56356363       0.00000000
Si      -2.67068034      -2.69079849      -0.00573297       0.00000000
Si       2.72043719      -2.67507864      -0.00218448       0.00000000
Si       0.00823483      -2.67926517       2.72885606       0.00000000
Si      -2.70422145       0.03114648       2.72885606       0.00000000
