10
Lattice="16.28999089631971 0.0 0.0 0.0 16.28999089631971 0.0 0.0 0.0 34.185847837958455" Properties=species:S:1:pos:R:3:initial_magmoms:R:1 pbc="T T T"
Si      -1.35739683      -1.35560493      -1.35704217       0.00000000
Si       1.35881406      -1.35540945       1.35670032       0.00000000
Si       1.35760860       1.35929222      -1.35690543       0.00000000
Si      -1.35677781       1.36278882       1.36100773       0.00000000
Si       2.69855253       0.00614133       2.71613550       0.00000000
Si       2.71332756      -2.71358820      -0.00030767       0.00000000
Si       0.00060273      -2.71355562      -2.71387923       0.00000000
Si       2.71497285       0.00136836      -2.71415272       0.00000000
Si      -2.71523349       0.00252495      -2.71415272       0.00000000
Si      -2.71586880      -2.71375110       0.00078627       0.00000000
