10
Lattice="16.28999089631971 0.0 0.0 0.0 16.28999089631971 0.0 0.0 0.0 34.185847837958455" Properties=species:S:1:pos:R:3:initial_magmoms:R:1 pbc="T T T"
Si      -1.35451350       1.35817875       1.35700799       0.00000000
Si      -1.35573525      -1.35728280      -1.35687124       0.00000000
Si       1.35958210       1.35788553      -1.35652939       0.00000000
Si       1.36251189      -1.35715248       1.36070006       0.00000000
Si      -2.70001863      -0.01166364       2.72413499       0.00000000
Si      -2.71272483       0.00003258      -2.71357156       0.00000000
Si      -2.71332756       2.71358820       0.00030767       0.00000000
Si       2.71524393       2.71288773      -0.00027349       0.00000000
Si       0.00270414      -2.71458189      -2.71394760       0.00000000
Si       0.00164529       2.71495656      -2.71384505       0.00000000
