10
Lattice="16.28999089631971 0.0 0.0 0.0 16.28999089631971 0.0 0.0 0.0 34.185847837958455" Properties=species:S:1:pos:R:3:initial_magmoms:R:1 pbc="T T T"
Si       0.39473928       0.78069825       2.14704337       0.00000000
Si      -0.76916493       1.97456533      -1.16580643       0.00000000
Si       1.98230145      -0.69108696      -1.21770058       0.00000000
Si      -1.59430230      -2.03633145       0.27693971       0.00000000
Si       0.60344676      -1.85826546      -2.69131656       0.00000000
Si       1.37405728       2.77911377       1.43939593       0.00000000
Si      -2.18971809       0.81915894      -2.65767767       0.00000000
Si      -3.32664606      -0.75789225      -1.18611284       0.00000000
Si      -0.37621755      -3.42653634      -1.19934277       0.00000000
Si       2.74813019      -2.56798818       0.07715750       0.00000000
