10
Lattice="16.28999089631971 0.0 0.0 0.0 16.28999089631971 0.0 0.0 0.0 34.185847837958455" Properties=species:S:1:pos:R:3:initial_magmoms:R:1 pbc="T T T"
Si      -1.34956134      -1.87595640       0.58232206       0.00000000
Si       1.13397948      -0.51741927       2.04096463       0.00000000
Si       0.92212803      -0.77419854      -2.08226116       0.00000000
Si      -0.58946994       2.26621593      -0.56468215       0.00000000
Si       2.77742871      -1.68257781       0.88185862       0.00000000
Si      -2.94410799      -0.10570581      -1.87841083       0.00000000
Si      -0.75878820      -3.05854524      -1.72474536       0.00000000
Si       3.14157537      -1.24072785      -1.39933009       0.00000000
Si       1.17265194       1.45717308       3.26105822       0.00000000
Si      -3.20580684      -1.08002700       1.81055189       0.00000000
