10
Lattice="16.28999089631971 0.0 0.0 0.0 16.28999089631971 0.0 0.0 0.0 34.185847837958455" Properties=species:S:1:pos:R:3:initial_magmoms:R:1 pbc="T T T"
Si      -1.36647036       0.89521695       1.68628626       0.00000000
Si      -1.44254466      -0.09060498      -1.88316267       0.00000000
Si       1.59713676       1.70422463      -0.54205111       0.00000000
Si       0.58946994      -2.26621593       0.56468215       0.00000000
Si      -2.35463805      -2.37192174      -1.31372868       0.00000000
Si       1.51159797      -3.04041447      -1.51757901       0.00000000
Si      -0.58634226      -0.07380999       3.77647854       0.00000000
Si       0.33254406       3.45425282      -1.64748530       0.00000000
Si      -3.66050961       0.19598499       1.25209156       0.00000000
Si       2.52340245       2.55389637       1.45720676       0.00000000
