10
Lattice="16.28999089631971 0.0 0.0 0.0 16.28999089631971 0.0 0.0 0.0 34.185847837958455" Properties=species:S:1:pos:R:3:initial_magmoms:R:1 pbc="T T T"
Si      -1.93933102       1.22298804       0.46205618       0.00000000
Si      -0.69346530      -2.22614253      -0.21858443       0.00000000
Si       1.38437307       1.01525796      -1.66703962       0.00000000
Si       1.48556655      -0.21321981       1.86436044       0.00000000
Si       1.47835008      -3.09443211      -0.55654591       0.00000000
Si      -3.36697100      -0.61553394       1.00926935       0.00000000
Si       2.18118213       2.90522376      -0.47699540       0.00000000
Si      -1.89414744      -2.48850927       1.95252579       0.00000000
Si       2.80688103       1.80261882       1.68317534       0.00000000
Si      -2.11874745       0.95516415      -2.95888934       0.00000000
