10
Lattice="16.28999089631971 0.0 0.0 0.0 16.28999089631971 0.0 0.0 0.0 34.185847837958455" Properties=species:S:1:pos:R:3:initial_magmoms:R:1 pbc="T T T"
Si      -0.84365910      -1.17250533      -1.86555694       0.00000000
Si       0.48392703      -1.83803328       1.41249165       0.00000000
Si      -1.98751032       1.08778104       0.77150665       0.00000000
Si       2.01741876       1.37714031       0.18750948       0.00000000
Si      -1.14207561       1.82584836       2.86436542       0.00000000
Si       1.63458747      -0.86434740       3.17723447       0.00000000
Si       3.15042084       0.73625913      -1.77103302       0.00000000
Si      -2.00005362       0.41985846      -3.19436159       0.00000000
Si       3.16754163       0.54959202       2.14109503       0.00000000
Si      -2.13490224      -3.05676963      -1.04625846       0.00000000
