10
Lattice="16.28999089631971 0.0 0.0 0.0 16.28999089631971 0.0 0.0 0.0 34.185847837958455" Properties=species:S:1:pos:R:3:initial_magmoms:R:1 pbc="T T T"
Si      -1.35139396      -1.36397799       1.37040885       0.00000000
Si       1.36425492       1.35446463       1.37765625       0.00000000
Si       1.38748446      -1.41069771      -1.31201255       0.00000000
Si      -1.46654635       1.19783628      -1.49116017       0.00000000
Si       2.70796815       2.68703550       0.00840630       0.00000000
Si      -2.72043719       2.67507864       0.00218448       0.00000000
Si      -2.68907843      -2.74268214       0.00103241       0.00000000
Si       0.00506619       2.70689301       2.73175844       0.00000000
Si      -2.71220236      -0.00418653       2.73104054       0.00000000
Si       2.73111624      -2.71518462       0.03349189       0.00000000
