10
Lattice="16.28999089631971 0.0 0.0 0.0 16.28999089631971 0.0 0.0 0.0 34.185847837958455" Properties=species:S:1:pos:R:3:initial_magmoms:R:1 pbc="T T T"
Si       1.42783479       1.29614643       1.37351976       0.00000000
Si       1.29953475      -0.14677290      -1.97772077       0.00000000
Si      -2.07911551       1.03065201      -0.52441120       0.00000000
Si      -0.47514672      -2.31531399       0.46827801       0.00000000
Si      -1.58614101       1.04166405      -2.89930338       0.00000000
Si       3.12601842      -0.25262532       1.63613559       0.00000000
Si      -2.58660276      -2.34351198      -0.68870848       0.00000000
Si       2.22472530       2.99317347      -0.09732716       0.00000000
Si      -3.69052298      -0.49197429       0.30763862       0.00000000
Si       2.24129223      -2.41828308      -1.79086083       0.00000000
