10
Lattice="16.28999089631971 0.0 0.0 0.0 16.28999089631971 0.0 0.0 0.0 34.185847837958455" Properties=species:S:1:pos:R:3:initial_magmoms:R:1 pbc="T T T"
Si       0.27435618      -0.58406166      -2.26014223       0.00000000
Si       1.84811679       0.88549182       1.18655008       0.00000000
Si      -0.93690958      -1.92930615       1.07021899       0.00000000
Si      -1.89765142       1.78061103       0.02370038       0.00000000
Si       0.21797649       1.77955218      -2.71734401       0.00000000
Si      -1.95507856       0.26396316      -2.74900012       0.00000000
Si      -2.19080042      -0.45206379       2.56356363       0.00000000
Si       0.56249370       2.29605602       2.58234193       0.00000000
Si      -0.83375967       3.57333760       1.21848651       0.00000000
Si      -3.74478497       0.73966374       1.23765795       0.00000000
