10
Lattice="16.28999089631971 0.0 0.0 0.0 16.28999089631971 0.0 0.0 0.0 34.185847837958455" Properties=species:S:1:pos:R:3:initial_magmoms:R:1 pbc="T T T"
Si       1.35566184       1.35500220       1.35625590       0.00000000
Si      -1.35793681       1.35707103      -1.35731566       0.00000000
Si       1.35710350      -1.35788553      -1.35748659       0.00000000
Si      -1.35958210      -1.35788553       1.35652939       0.00000000
Si      -2.71409560       0.00029322       2.71353737       0.00000000
Si      -0.00270269       2.71395720      -2.71415272       0.00000000
Si      -0.00282849      -2.71340901      -2.71582783       0.00000000
Si       2.71453780      -2.71490769       0.00013674       0.00000000
Si       2.71444006      -0.00232947      -2.71510992       0.00000000
Si       2.71494505       2.71476388       0.00020512       0.00000000
