10
Lattice="16.28999089631971 0.0 0.0 0.0 16.28999089631971 0.0 0.0 0.0 34.185847837958455" Properties=species:S:1:pos:R:3:initial_magmoms:R:1 pbc="T T T"
Si      -1.35566184      -1.35500220      -1.35625590       0.00000000
Si      -1.35208044       1.35686726       1.36220424       0.00000000
Si       1.35998368      -1.35387819       1.35970867       0.00000000
Si       1.35928321       1.35976168      -1.35605078       0.00000000
Si       0.00144166      -2.71288773      -2.71374249       0.00000000
Si      -2.71359864       0.00206883      -2.71357156       0.00000000
Si      -2.71524393      -2.71288773       0.00027349       0.00000000
Si       2.71610989      -2.71249677       0.00136743       0.00000000
Si       2.71668004       0.00272043      -2.71350319       0.00000000
Si       2.71475782       2.71656017       0.00112813       0.00000000
