10
Lattice="16.28999089631971 0.0 0.0 0.0 16.28999089631971 0.0 0.0 0.0 34.185847837958455" Properties=species:S:1:pos:R:3:initial_magmoms:R:1 pbc="T T T"
Si      -0.02048956       2.21081364       0.74378191       0.00000000
Si      -1.61140747      -1.52262630       0.83204982       0.00000000
Si       2.07911551      -1.03065201       0.52441120       0.00000000
Si       0.49297450       0.01101204      -2.37489218       0.00000000
Si      -0.72726053      -2.13355017      -2.40777898       0.00000000
Si      -0.50748726      -3.37416399      -0.16429728       0.00000000
Si       2.16807520       2.99835369      -0.05261205       0.00000000
Si      -0.35763880       2.08769382       3.10370067       0.00000000
Si       1.60396879      -3.34596600       0.99268920       0.00000000
Si      -1.86041641       3.35969847      -0.30500630       0.00000000
