10
Lattice="10.86 0.0 0.0 0.0 10.86 0.0 0.0 0.0 10.86" Properties=species:S:1:pos:R:3:initial_magmoms:R:1 pbc="T T T"
Si      -1.08677106       1.48181442       1.23752958       0.00000000
Si       1.34489154       1.38061008      -1.25244036       0.00000000
Si       1.52250684      -1.27526808       1.19900916       0.00000000
Si      -2.51044104       0.06648492       2.56705422       0.00000000
Si      -2.51044104      -2.64851508      -0.14794578       0.00000000
Si       0.20455896      -2.64851508       2.56705422       0.00000000
Si      -2.51044104       2.78148492      -0.14794578       0.00000000
Si       0.20455896       2.78148492       2.56705422       0.00000000
Si      -2.51044104       0.06648492      -2.86294578       0.00000000
Si       2.91955896       0.06648492       2.56705422       0.00000000
