10
Lattice="10.86 0.0 0.0 0.0 10.86 0.0 0.0 0.0 10.86" Properties=species:S:1:pos:R:3:initial_magmoms:R:1 pbc="T T T"
Si      -1.47453822       1.11048930      -1.12190316       0.00000000
Si       1.24046178       1.11048930       1.59309684       0.00000000
Si       1.24046178      -1.60451070      -1.12190316       0.00000000
Si      -0.11703822       2.46798930      -2.47940316       0.00000000
Si       2.59796178       2.46798930       0.23559684       0.00000000
Si       2.59796178      -0.24701070      -2.47940316       0.00000000
Si      -2.81271828       2.49196818       0.27249912       0.00000000
Si      -2.83203822      -0.24701070      -2.47940316       0.00000000
Si       0.03221076       2.37257334       3.02030718       0.00000000
Si      -0.11703822      -2.96201070      -2.47940316       0.00000000
