10
Lattice="16.28999089631971 0.0 0.0 0.0 16.28999089631971 0.0 0.0 0.0 34.25627252547053" Properties=species:S:1:pos:R:3:initial_magmoms:R:1 pbc="T T T"
Si       2.26388646      -0.71676000       0.19741901       0.00000000
Si      -0.75217446       0.45434439       2.24190301       0.00000000
Si      -0.19893348       2.03649435      -1.30581558       0.00000000
Si      -1.09090872      -1.88058276      -1.11356927       0.00000000
Si      -1.37588598       1.17234243      -3.15377124       0.00000000
Si      -2.66508472      -0.64361790      -2.40599065       0.00000000
Si       2.22457869      -2.62664847       1.67592056       0.00000000
Si       0.90142344       1.86028542       3.22622329       0.00000000
Si       2.04286374       2.55498876      -2.12769253       0.00000000
Si       3.65552487       1.13016762       0.97459150       0.00000000
