10
Lattice="16.28999089631971 0.0 0.0 0.0 16.28999089631971 0.0 0.0 0.0 34.25627252547053" Properties=species:S:1:pos:R:3:initial_magmoms:R:1 pbc="T T T"
Si      -1.17695250      -0.86415192      -1.84795565       0.00000000
Si      -1.38516151       1.78554431       0.85096054       0.00000000
Si       0.19893348      -2.03649435       1.30581558       0.00000000
Si       2.24179722       0.51849441      -0.82187695       0.00000000
Si       2.66895360      -1.53886743      -2.00974812       0.00000000
Si       0.62454231      -1.62391752      -3.28007418       0.00000000
Si      -0.41980959       3.69358550      -0.14322556       0.00000000
Si      -2.46615124      -2.68011225      -1.10017506       0.00000000
Si      -2.79828268       0.67122945      -2.63543929       0.00000000
Si       3.59995968       1.12855491       1.00710072       0.00000000
