10
Lattice="16.28999089631971 0.0 0.0 0.0 16.28999089631971 0.0 0.0 0.0 34.25627252547053" Properties=species:S:1:pos:R:3:initial_magmoms:R:1 pbc="T T T"
Si       1.37336103      -1.27416375       1.36879920       0.00000000
Si      -1.19837385      -1.49671773      -1.39032384       0.00000000
Si      -1.35601218       1.44874952       1.34318235       0.00000000
Si       1.00522332       1.58400539      -1.61223610       0.00000000
Si      -1.42144911       0.35469683      -2.81699562       0.00000000
Si       2.06863452      -0.25749440      -2.69518024       0.00000000
Si       2.57781105       2.69858348      -0.04218320       0.00000000
Si      -0.01436778      -2.60974827       2.71900751       0.00000000
Si      -2.74835106      -2.63217960      -0.04607129       0.00000000
Si       2.73544938      -2.66824566      -0.03180697       0.00000000
