10
Lattice="16.28999089631971 0.0 0.0 0.0 16.28999089631971 0.0 0.0 0.0 34.25627252547053" Properties=species:S:1:pos:R:3:initial_magmoms:R:1 pbc="T T T"
Si       2.24148771      -0.19849365       0.43604834       0.00000000
Si      -0.55715058       1.31178483       1.85830105       0.00000000
Si       0.09011628       1.28537874      -1.96583155       0.00000000
Si      -0.11759751      -2.27513308      -0.65840593       0.00000000
Si      -1.88550234      -1.77938928      -2.08278253       0.00000000
Si       2.14842294      -2.22603176       1.70387369       0.00000000
Si      -3.43117899      -0.52383753      -0.82896800       0.00000000
Si      -1.08162342       3.17685951      -1.30006053       0.00000000
Si      -0.91282644       3.42404397       0.98939022       0.00000000
Si      -1.25677350       0.09480780      -3.49571754       0.00000000
