10
Lattice="16.28999089631971 0.0 0.0 0.0 16.28999089631971 0.0 0.0 0.0 34.25627252547053" Properties=species:S:1:pos:R:3:initial_magmoms:R:1 pbc="T T T"
Si      -1.70622600      -0.99359049       1.18824799       0.00000000
Si       1.27694052      -1.43400693      -1.31701739       0.00000000
Si      -1.42084964       1.30148059      -1.34462796       0.00000000
Si       2.05822521       0.63507135       1.72086481       0.00000000
Si       0.07602543      -0.32534211       3.06936373       0.00000000
Si       2.67928146       2.50557386       0.22883203       0.00000000
Si      -3.48342821       0.64182356       1.16625545       0.00000000
Si       2.63295270      -0.06340094      -2.68908464       0.00000000
Si      -2.72260113       2.62015772       0.03083066       0.00000000
Si      -0.08376318       2.65382915      -2.69374350       0.00000000
