10
Lattice="16.28999089631971 0.0 0.0 0.0 16.28999089631971 0.0 0.0 0.0 34.25627252547053" Properties=species:S:1:pos:R:3:initial_magmoms:R:1 pbc="T T T"
Si       1.06341120      -1.84149979      -1.08294415       0.00000000
Si      -1.00522332      -1.58400539       1.61223610       0.00000000
Si       1.57258773       1.11457809       1.57005290       0.00000000
Si      -0.51036570       2.15837613      -1.42173887       0.00000000
Si      -2.42667243      -1.22930856      -1.20475952       0.00000000
Si       2.80766295       2.49083874       0.11379940       0.00000000
Si      -2.36123550      -0.13525587       2.95541844       0.00000000
Si      -2.20359717      -3.08072312       0.22191226       0.00000000
Si      -3.69170496       0.69335127      -0.66953922       0.00000000
Si      -2.47868640       3.01327533      -0.00202112       0.00000000
