10
Lattice="16.28999089631971 0.0 0.0 0.0 16.28999089631971 0.0 0.0 0.0 34.25627252547053" Properties=species:S:1:pos:R:3:initial_magmoms:R:1 pbc="T T T"
Si      -1.35762489       1.35441576       1.36021457       0.00000000
Si       1.35856971      -1.35905841       1.35939242       0.00000000
Si      -1.34247519      -1.37499003      -1.37068672       0.00000000
Si       1.35031068       1.36397799      -1.38062105       0.00000000
Si      -2.39630787       0.17744697      -2.78354636       0.00000000
Si       2.59134804      -0.12515607      -2.75605226       0.00000000
Si      -2.71565703       2.71000440       0.00178133       0.00000000
Si       2.71531494       2.71349046       0.00417927       0.00000000
Si       0.00013032       2.71228500       2.71738034       0.00000000
Si      -2.71513575      -0.00228060       2.71731182       0.00000000
