10
Lattice="16.28999089631971 0.0 0.0 0.0 16.28999089631971 0.0 0.0 0.0 34.25627252547053" Properties=species:S:1:pos:R:3:initial_magmoms:R:1 pbc="T T T"
Si      -1.20958104      -1.33594290      -1.58401093       0.00000000
Si       1.30620225       1.38580659      -1.52060253       0.00000000
Si      -2.14337534       0.00167787       1.33544727       0.00000000
Si       1.52740416      -0.33596496       2.01276267       0.00000000
Si       0.79236678       2.06130402       1.51443640       0.00000000
Si      -1.91024915      -2.46606654       1.75745053       0.00000000
Si       0.37449570      -2.54023165       2.66085746       0.00000000
Si      -1.97040812      -3.31427706      -0.44858614       0.00000000
Si      -1.47256943       0.43331400       3.59365628       0.00000000
Si       2.31636144       3.16379493      -0.24267157       0.00000000
