10
Lattice="16.28999089631971 0.0 0.0 0.0 16.28999089631971 0.0 0.0 0.0 34.25627252547053" Properties=species:S:1:pos:R:3:initial_magmoms:R:1 pbc="T T T"
Si      -1.35772263      -1.35633798      -1.35737130       0.00000000
Si      -1.35348723       1.35729909       1.36110524       0.00000000
Si       1.35733167       1.35840681      -1.35720002       0.00000000
Si       1.35694071      -1.35648459       1.36268103       0.00000000
Si      -0.00022806      -2.71370223      -2.71460558       0.00000000
Si      -2.71369083       0.00022806      -2.71463983       0.00000000
Si       2.71503801       0.00086337      -2.71453706       0.00000000
Si      -2.71457049      -2.71524978       0.00044533       0.00000000
Si      -0.00006516       2.71546155      -2.71440004       0.00000000
Si       2.71647153      -2.71492398       0.00013703       0.00000000
