10
Lattice="16.28999089631971 0.0 0.0 0.0 16.28999089631971 0.0 0.0 0.0 34.25627252547053" Properties=species:S:1:pos:R:3:initial_magmoms:R:1 pbc="T T T"
Si       1.30298823      -1.41292944       1.33394000       0.00000000
Si      -1.34480466      -1.37116188      -1.36733988       0.00000000
Si       1.37521809       1.34073216      -1.37021741       0.00000000
Si      -1.31217579       1.44590040       1.42838459       0.00000000
Si       0.29123262       2.46769065       2.86745715       0.00000000
Si      -2.70550836       2.71938744       0.00955751       0.00000000
Si       0.01361844       2.70179424      -2.72957558       0.00000000
Si      -2.70174537      -0.01467729      -2.73002091       0.00000000
Si       2.73781143       2.69646741       0.00530973       0.00000000
Si      -2.70171279      -2.74432743       0.02401366       0.00000000
