10
Lattice="16.28999089631971 0.0 0.0 0.0 16.28999089631971 0.0 0.0 0.0 34.25627252547053" Properties=species:S:1:pos:R:3:initial_magmoms:R:1 pbc="T T T"
Si       1.32478425       1.22859180      -1.49011443       0.00000000
Si      -1.27296576      -1.59268959      -1.27587558       0.00000000
Si      -1.57578057       0.73303371       1.70229790       0.00000000
Si       1.67887998      -0.83336382       1.62720811       0.00000000
Si      -0.19663659      -2.38251024       1.93969400       0.00000000
Si       3.12225543       2.05692201      -0.19957716       0.00000000
Si       0.02179602       2.64152124      -2.82405443       0.00000000
Si      -2.67991677      -0.10280619      -2.80004077       0.00000000
Si       2.73737160      -0.10319715      -2.83289255       0.00000000
Si      -1.60189344      -1.22790762       3.38462439       0.00000000
