10
Lattice="16.28999089631971 0.0 0.0 0.0 16.28999089631971 0.0 0.0 0.0 34.25627252547053" Properties=species:S:1:pos:R:3:initial_magmoms:R:1 pbc="T T T"
Si      -0.16879698      -0.24718446      -2.28945074       0.00000000
Si       0.35567586      -2.11225914       0.86891084       0.00000000
Si       1.38598578       1.80338445       0.43426701       0.00000000
Si      -2.02523796       0.96109371       0.64230547       0.00000000
Si      -1.50182397       0.47860020       2.88314653       0.00000000
Si       0.07983729       3.25399266      -0.94585047       0.00000000
Si      -2.30218425      -1.49450976      -2.12436967       0.00000000
Si       1.83353724      -1.58079789       2.63098597       0.00000000
Si      -3.55685634      -0.41334246      -0.42964241       0.00000000
Si       0.45387198       2.03563098      -2.97419976       0.00000000
