10
Lattice="16.28999089631971 0.0 0.0 0.0 16.28999089631971 0.0 0.0 0.0 34.25627252547053" Properties=species:S:1:pos:R:3:initial_magmoms:R:1 pbc="T T T"
Si      -0.37403469       1.21836168       2.02834929       0.00000000
Si      -1.24056495       1.04109390      -1.77947733       0.00000000
Si       2.19828663       0.95187357      -0.34687921       0.00000000
Si      -0.62266896      -2.28281544       0.68474901       0.00000000
Si      -1.69512111      -1.21663494      -2.75259580       0.00000000
Si       0.93211380      -0.23224653       3.40846676       0.00000000
Si      -0.45387198      -2.03563098       2.97419976       0.00000000
Si      -2.67405237       1.02752433       2.52513403       0.00000000
Si       1.76979447       3.07701810      -1.48038564       0.00000000
Si      -3.75857541       1.01967255       0.35825230       0.00000000
