10
Lattice="16.28999089631971 0.0 0.0 0.0 16.28999089631971 0.0 0.0 0.0 34.25627252547053" Properties=species:S:1:pos:R:3:initial_magmoms:R:1 pbc="T T T"
Si       1.59506793      -1.45453410      -0.91786308       0.00000000
Si       0.34611363       0.50738463       2.28383271       0.00000000
Si       0.03930777       1.90988847      -1.47850155       0.00000000
Si      -1.62543249      -1.63815498       0.73171439       0.00000000
Si       1.01599101      -3.55812696      -0.05861252       0.00000000
Si      -1.32432813      -3.43174914      -0.72047833       0.00000000
Si       1.98871578      -0.99416241       3.05271518       0.00000000
Si      -2.22457869       2.62664847      -1.67592056       0.00000000
Si       3.76559640      -0.78074712      -0.39699616       0.00000000
Si      -1.80364509       0.73199115       3.34601755       0.00000000
