10
Lattice="16.28999089631971 0.0 0.0 0.0 16.28999089631971 0.0 0.0 0.0 34.25627252547053" Properties=species:S:1:pos:R:3:initial_magmoms:R:1 pbc="T T T"
Si      -1.25676791       1.33539718       1.52723455       0.00000000
Si      -1.95027042      -1.01710687      -1.07706611       0.00000000
Si       0.57659270       1.83341507      -1.54030473       0.00000000
Si       1.44287860      -1.37106702       1.51089430       0.00000000
Si      -2.55319590       2.68588706       0.05470387       0.00000000
Si      -2.61535854      -0.02156307       2.89617420       0.00000000
Si       0.77954981       0.91456132      -3.72462292       0.00000000
Si       2.79094126      -2.76042099       0.13506913       0.00000000
Si      -3.59958405       0.94865630      -1.31530941       0.00000000
Si      -2.72611425      -2.85188934       0.26432155       0.00000000
