10
Lattice="16.28999089631971 0.0 0.0 0.0 16.28999089631971 0.0 0.0 0.0 34.25627252547053" Properties=species:S:1:pos:R:3:initial_magmoms:R:1 pbc="T T T"
Si       1.01744082       1.71064548       1.29129091       0.00000000
Si      -1.08222615      -1.54334718       1.45897546       0.00000000
Si       1.31970177      -1.34614044      -1.49658887       0.00000000
Si      -1.38271149       1.34465805      -1.49521862       0.00000000
Si      -0.60142680       3.41373633       1.54266358       0.00000000
Si       2.63195901      -2.77741242      -0.12534377       0.00000000
Si      -2.65965201       2.77866498      -0.17820123       0.00000000
Si      -2.71686249      -2.76244191       0.09002553       0.00000000
Si       2.68501554       0.00216657      -2.86495644       0.00000000
Si      -0.03404610      -2.71239903      -2.86923848       0.00000000
