10
Lattice="16.28999089631971 0.0 0.0 0.0 16.28999089631971 0.0 0.0 0.0 34.25627252547053" Properties=species:S:1:pos:R:3:initial_magmoms:R:1 pbc="T T T"
Si       1.47460338       1.10351718      -1.49254663       0.00000000
Si       1.63820385      -1.02954429       1.38381716       0.00000000
Si      -1.00999629       1.67148432       1.38299501       0.00000000
Si      -0.73280565      -2.35688607      -0.53994767       0.00000000
Si       2.29599405      -1.07631288      -2.06055020       0.00000000
Si      -2.64648969      -1.58175900      -1.66389660       0.00000000
Si       0.17238078      -2.20276638       2.80699621       0.00000000
Si       2.25701208       2.91070764       0.07813860       0.00000000
Si      -1.23307155       3.52289888      -0.04367677       0.00000000
Si      -2.55997350       0.53602245       2.72724756       0.00000000
