10
Lattice="16.28999089631971 0.0 0.0 0.0 16.28999089631971 0.0 0.0 0.0 34.25627252547053" Properties=species:S:1:pos:R:3:initial_magmoms:R:1 pbc="T T T"
Si      -2.02053015       1.09618668       0.23547775       0.00000000
Si       1.78885377       0.56505123       1.37244407       0.00000000
Si       0.15224634      -0.10624338      -2.37430358       0.00000000
Si      -0.06291198      -2.17861971       0.96345820       0.00000000
Si      -0.94574853      -0.00646713       3.12057689       0.00000000
Si       1.90050543      -1.63491327       2.15338475       0.00000000
Si      -3.25477458      -0.70099128      -0.58317911       0.00000000
Si       3.32522883       0.57212109      -0.44187191       0.00000000
Si      -2.08785672      -0.78120324      -2.62547071       0.00000000
Si      -1.53966564       2.92405500      -1.11113708       0.00000000
