10
Lattice="16.28999089631971 0.0 0.0 0.0 16.28999089631971 0.0 0.0 0.0 34.25627252547053" Properties=species:S:1:pos:R:3:initial_magmoms:R:1 pbc="T T T"
Si       1.35641943       1.35684297       1.35730279       0.00000000
Si       1.35742941      -1.35749457      -1.35702874       0.00000000
Si      -1.35653346      -1.35799956       1.35747407       0.00000000
Si      -1.35796698       1.35778779      -1.35720002       0.00000000
Si      -0.00086337      -2.71474479       2.71234466       0.00000000
Si      -0.00094482       2.71342530      -2.71371491       0.00000000
Si       2.71396287      -2.71446786       0.00027405       0.00000000
Si       0.00047241      -2.71355562      -2.71518793       0.00000000
Si       2.71432125       0.00131949      -2.71446855       0.00000000
Si       0.00395847       2.71233387       2.71714054       0.00000000
