10
Lattice="16.28999089631971 0.0 0.0 0.0 16.28999089631971 0.0 0.0 0.0 34.25627252547053" Properties=species:S:1:pos:R:3:initial_magmoms:R:1 pbc="T T T"
Si      -1.35246096       1.35549090       1.35983775       0.00000000
Si      -1.35641943      -1.35684297      -1.35730279       0.00000000
Si       1.35956340      -1.35436689       1.35891283       0.00000000
Si       1.35858600       1.35814617      -1.35713151       0.00000000
Si       2.70860346       0.01110978       2.71313256       0.00000000
Si      -2.71295289      -2.71484253       0.00017128       0.00000000
Si       0.00100998      -2.71433754      -2.71433153       0.00000000
Si       2.71459818      -2.71420722       0.00113046       0.00000000
Si      -2.71438641       0.00094482      -2.71450281       0.00000000
Si       2.71565703       0.00092853      -2.71422876       0.00000000
