10
Lattice="16.28999089631971 0.0 0.0 0.0 16.28999089631971 0.0 0.0 0.0 34.25627252547053" Properties=species:S:1:pos:R:3:initial_magmoms:R:1 pbc="T T T"
Si       1.96059924       1.14979707       0.38319088       0.00000000
Si      -1.44508590       1.27698939       1.31708590       0.00000000
Si      -0.99979875      -0.23376150      -2.09874597       0.00000000
Si       0.56378061      -1.94334813       1.19479094       0.00000000
Si      -0.03839553       1.68088365       3.27051668       0.00000000
Si       2.28253851       1.13285547       2.70210203       0.00000000
Si       0.28295730      -1.75492170      -3.43114443       0.00000000
Si      -1.87357806       3.40213392       0.18357947       0.00000000
Si      -0.91399932      -3.76688331       0.78118048       0.00000000
Si       1.92067245       3.50458173       0.24517228       0.00000000
