10
Lattice="16.28999089631971 0.0 0.0 0.0 16.28999089631971 0.0 0.0 0.0 34.25627252547053" Properties=species:S:1:pos:R:3:initial_magmoms:R:1 pbc="T T T"
Si       1.13808456      -1.61652186      -1.20760279       0.00000000
Si       0.32751045       1.77236829      -1.49395114       0.00000000
Si      -2.34535275       0.18435393       0.30796406       0.00000000
Si       0.97549407      -0.38858166       2.21240834       0.00000000
Si      -0.14323797       1.51057170       3.08032575       0.00000000
Si       3.33221724      -0.66582117      -0.76107203       0.00000000
Si       0.65722005      -3.44439018       0.13901203       0.00000000
Si      -2.31376644       0.83678472       2.55945883       0.00000000
Si       2.64844449       1.22434011      -2.06236578       0.00000000
Si       0.37286181      -2.71736748       2.31802049       0.00000000
