10
Lattice="16.28999089631971 0.0 0.0 0.0 16.28999089631971 0.0 0.0 0.0 34.25627252547053" Properties=species:S:1:pos:R:3:initial_magmoms:R:1 pbc="T T T"
Si       1.35988920       1.36329381      -1.34213068       0.00000000
Si      -1.35399222      -1.36596537      -1.34748151       0.00000000
Si      -1.35718506       1.35878148       1.35939242       0.00000000
Si       1.35852084      -1.35868374       1.35901560       0.00000000
Si       2.69128719      -0.02941974      -2.65114922       0.00000000
Si      -2.71658556      -0.04701294      -2.68070555       0.00000000
Si       0.03486060       2.65570983      -2.74618988       0.00000000
Si      -0.02796993      -2.72298753      -2.70494873       0.00000000
Si      -2.71495656       2.71420722       0.00462460       0.00000000
Si      -2.71370223      -0.00006516       2.71690075       0.00000000
