10
Lattice="16.28999089631971 0.0 0.0 0.0 16.28999089631971 0.0 0.0 0.0 34.25627252547053" Properties=species:S:1:pos:R:3:initial_magmoms:R:1 pbc="T T T"
Si       0.03992679      -2.35478466       0.13801860       0.00000000
Si       0.01985751       1.15600356       2.08243997       0.00000000
Si      -1.89297945       0.69833601      -1.30732286       0.00000000
Si       2.11608729       0.09163125      -1.22411433       0.00000000
Si       1.89076401      -2.26470096      -1.28067146       0.00000000
Si       0.36186606      -2.37172626       2.45692975       0.00000000
Si       1.49916870      -0.42582060       3.06302632       0.00000000
Si      -3.79425051      -0.10244781      -0.06159281       0.00000000
Si       1.30629510       3.08863287       1.80040792       0.00000000
Si       3.89208825       0.68145957       0.17165828       0.00000000
