10
Lattice="16.28999089631971 0.0 0.0 0.0 16.28999089631971 0.0 0.0 0.0 34.25627252547053" Properties=species:S:1:pos:R:3:initial_magmoms:R:1 pbc="T T T"
Si       1.48330224      -1.14647391      -1.35264393       0.00000000
Si      -2.28716487      -0.47438109      -0.22249461       0.00000000
Si       0.19176588       2.32857405      -0.58506321       0.00000000
Si       1.34034120      -0.84307266       1.88176661       0.00000000
Si       3.22773318      -0.92708019       0.44978511       0.00000000
Si      -2.96839638       1.44596556       1.01391772       0.00000000
Si       3.31499871       0.79104240      -1.00987548       0.00000000
Si      -1.36834371       3.28922793       0.92899637       0.00000000
Si       2.45272014       2.80254789      -0.17042505       0.00000000
Si       1.05498927      -0.84779676      -3.62763852       0.00000000
