10
Lattice="16.28999089631971 0.0 0.0 0.0 16.28999089631971 0.0 0.0 0.0 34.25627252547053" Properties=species:S:1:pos:R:3:initial_magmoms:R:1 pbc="T T T"
Si      -2.17052847      -0.67378698      -0.52086691       0.00000000
Si       0.14784804       0.53757000       2.28372994       0.00000000
Si       1.11873204      -1.89915336      -0.86791741       0.00000000
Si       0.58683096       2.03308974      -1.13145106       0.00000000
Si       0.14323797      -1.51057170      -3.08032575       0.00000000
Si       0.07892505       2.91369456       2.23183166       0.00000000
Si      -2.20211478      -1.32621777      -2.77236168       0.00000000
Si      -3.76559640       0.78074712       0.39699616       0.00000000
Si      -1.77688062      -0.21341529       3.44971134       0.00000000
Si       3.39148026      -1.90526211      -0.08252341       0.00000000
