10
Lattice="16.28999089631971 0.0 0.0 0.0 16.28999089631971 0.0 0.0 0.0 34.25627252547053" Properties=species:S:1:pos:R:3:initial_magmoms:R:1 pbc="T T T"
Si      -1.26665013       1.35612621      -1.42574001       0.00000000
Si       1.33643160       1.36247931       1.37733587       0.00000000
Si      -1.37505845      -1.35518139       1.37921996       0.00000000
Si       1.65578076      -1.17007812      -1.40799182       0.00000000
Si      -2.31205110      -0.20386935      -2.80962024       0.00000000
Si       0.63324117       2.05542333      -2.98004529       0.00000000
Si       2.69718417       2.72753244       0.01025291       0.00000000
Si       2.69446374       0.00689067       2.73576911       0.00000000
Si       2.70961344      -2.72251512       0.00486782       0.00000000
Si      -2.73043462      -2.70762606       0.00777960       0.00000000
