10
Lattice="16.28999089631971 0.0 0.0 0.0 16.28999089631971 0.0 0.0 0.0 34.25627252547053" Properties=species:S:1:pos:R:3:initial_magmoms:R:1 pbc="T T T"
Si       1.37253024       1.33838640      -1.38117942       0.00000000
Si       1.33002963      -1.41016014       1.35535018       0.00000000
Si      -1.34338743      -1.37487600      -1.38217286       0.00000000
Si      -1.25770203       1.45080371       1.60901802       0.00000000
Si      -2.68071498       2.69598590      -0.00308307       0.00000000
Si      -2.70870120      -2.72318301      -0.01380529       0.00000000
Si       2.73028545       2.70457561       0.00417927       0.00000000
Si       0.01255959       2.69805961      -2.74475111       0.00000000
Si      -2.70070281      -0.01801674      -2.74389471       0.00000000
Si       2.71210581      -2.74056444      -0.03059087       0.00000000
