10
Lattice="16.28999089631971 0.0 0.0 0.0 16.28999089631971 0.0 0.0 0.0 34.25627252547053" Properties=species:S:1:pos:R:3:initial_magmoms:R:1 pbc="T T T"
Si      -1.04540098      -1.55999556      -1.38388023       0.00000000
Si       1.26665013      -1.35612621       1.42574001       0.00000000
Si      -1.46522264       1.36080144       1.42333179       0.00000000
Si       1.89989130       0.69929712      -1.55430528       0.00000000
Si      -1.40945136       0.01549179      -3.21107657       0.00000000
Si       2.58050379       2.57675220      -0.07495277       0.00000000
Si       2.60308173       0.00635310       2.80307588       0.00000000
Si       2.92243089      -2.52620433       0.01774818       0.00000000
Si      -2.76021248      -2.71326240      -0.03901106       0.00000000
Si      -0.10840832      -2.71130760       2.80495997       0.00000000
