10
Lattice="16.28999089631971 0.0 0.0 0.0 16.28999089631971 0.0 0.0 0.0 34.25627252547053" Properties=species:S:1:pos:R:3:initial_magmoms:R:1 pbc="T T T"
Si      -0.70845210       2.17148862      -0.60294499       0.00000000
Si       1.56010959      -0.96065388      -1.51405958       0.00000000
Si       0.74484396       0.58569066       2.18918258       0.00000000
Si      -1.60005267      -1.84326237       0.08492135       0.00000000
Si       1.25242407       2.26352386      -2.23337319       0.00000000
Si      -2.01952017       2.38006578       1.54663731       0.00000000
Si       0.15882750      -1.42425099       3.26102769       0.00000000
Si      -2.03250330       1.71361419      -2.51218515       0.00000000
Si       1.36834371      -3.28922793      -0.92899637       0.00000000
Si       1.38787542       0.27709290      -3.60222035       0.00000000
