10
Lattice="16.28999089631971 0.0 0.0 0.0 16.28999089631971 0.0 0.0 0.0 34.25627252547053" Properties=species:S:1:pos:R:3:initial_magmoms:R:1 pbc="T T T"
Si       0.67080591       0.43163613       2.25820900       0.00000000
Si       0.23312619      -2.46774441       0.42200326       0.00000000
Si       2.14337534      -0.00167787      -1.33544727       0.00000000
Si       0.93379430      -1.33762077      -2.91945820       0.00000000
Si      -0.85315617       3.05299035      -1.52858425       0.00000000
Si      -1.05120999       1.90799883       2.79671791       0.00000000
Si       2.93574212       2.05962615       0.17898912       0.00000000
Si      -1.95142797       1.43392725      -2.85509063       0.00000000
Si       3.67077950      -0.33764283       0.67731540       0.00000000
Si       0.17296722      -3.31595493      -1.78403341       0.00000000
