10
Lattice="16.28999089631971 0.0 0.0 0.0 16.28999089631971 0.0 0.0 0.0 34.25627252547053" Properties=species:S:1:pos:R:3:initial_magmoms:R:1 pbc="T T T"
Si       1.95385518       1.19474118       0.34800967       0.00000000
Si      -1.62484605       1.60173054       0.52871161       0.00000000
Si       0.30885840      -1.44226610      -1.93030778       0.00000000
Si       0.62279928      -1.52455292       1.82661398       0.00000000
Si      -2.19160773      -2.25151325      -1.33613240       0.00000000
Si      -0.86196906      -3.35674088       0.28059329       0.00000000
Si       3.67271312      -0.36316437       0.07615174       0.00000000
Si       1.54813644       2.28009501       2.46114328       0.00000000
Si       1.98623970      -0.08003766      -3.12896968       0.00000000
Si       2.70451909      -2.41574903       0.85962738       0.00000000
