10
Lattice="16.28999089631971 0.0 0.0 0.0 16.28999089631971 0.0 0.0 0.0 34.25627252547053" Properties=species:S:1:pos:R:3:initial_magmoms:R:1 pbc="T T T"
Si      -0.33993972      -0.24430113      -2.25875710       0.00000000
Si      -0.88472619       2.04625206       0.75161730       0.00000000
Si      -0.50839461      -1.98220697       1.18218463       0.00000000
Si       2.31123239       0.53752113      -0.10845542       0.00000000
Si       2.47334395       1.24359489       2.09936258       0.00000000
Si       0.42852474       2.37988755       2.67521084       0.00000000
Si      -0.45159138       1.95566337      -3.03969779       0.00000000
Si      -0.47175840       3.46063131      -1.13004655       0.00000000
Si      -3.18619368       1.38414501      -1.29156496       0.00000000
Si       0.64785330      -3.65273018       0.02586350       0.00000000
