10
Lattice="16.28999089631971 0.0 0.0 0.0 16.28999089631971 0.0 0.0 0.0 34.25627252547053" Properties=species:S:1:pos:R:3:initial_magmoms:R:1 pbc="T T T"
Si      -1.09827180      -1.61906310      -1.32650638       0.00000000
Si       1.69620653       1.02498309      -1.31427689       0.00000000
Si      -1.58096079       1.79058051      -0.12537803       0.00000000
Si      -1.17745749       2.13921909       2.27907108       0.00000000
Si       0.85315617      -3.05299035       1.52858425       0.00000000
Si      -2.37011355      -0.27463311      -2.75797404       0.00000000
Si       0.36707886       2.44446111      -2.73961267       0.00000000
Si       0.57500442       0.97298541       3.60886607       0.00000000
Si       3.43696913       1.62515556       0.12942027       0.00000000
Si      -2.94593247      -2.49313563      -0.06447034       0.00000000
