10
Lattice="16.28999089631971 0.0 0.0 0.0 16.28999089631971 0.0 0.0 0.0 34.25627252547053" Properties=species:S:1:pos:R:3:initial_magmoms:R:1 pbc="T T T"
Si      -1.72201590       1.47636270       0.53850891       0.00000000
Si      -0.47006424      -1.62460170       1.64077360       0.00000000
Si       2.21987807       0.80907543       0.09437608       0.00000000
Si      -0.67080591      -0.43163613      -2.25820900       0.00000000
Si      -0.43767972      -2.89938054      -1.83620575       0.00000000
Si       2.99997359      -0.76927896      -1.58089360       0.00000000
Si       2.26493621       1.62799002      -2.07921988       0.00000000
Si      -1.63181817       1.51760898       2.85272695       0.00000000
Si       1.84706513      -2.97354565      -0.93279882       0.00000000
Si       1.24879370      -3.18250725       1.36891567       0.00000000
