10
Lattice="16.28999089631971 0.0 0.0 0.0 16.28999089631971 0.0 0.0 0.0 34.25627252547053" Properties=species:S:1:pos:R:3:initial_magmoms:R:1 pbc="T T T"
Si      -1.34053361      -1.35040842      -1.36014606       0.00000000
Si       1.25278734      -1.37958381       1.42554132       0.00000000
Si       1.37841582       1.36091547      -1.35696023       0.00000000
Si      -1.35373989       1.31426091       1.43872999       0.00000000
Si       0.38702271       1.91443338       2.88242715       0.00000000
Si       2.26294653       0.39840453       2.70347228       0.00000000
Si      -2.70223637      -2.71292031       0.02380812       0.00000000
Si      -2.69798468       0.00384444      -2.71758587       0.00000000
Si      -2.68286756       2.73373893       0.01339421       0.00000000
Si       0.01733256      -2.71163340      -2.71762013       0.00000000
