10
Lattice="16.28999089631971 0.0 0.0 0.0 16.28999089631971 0.0 0.0 0.0 34.25627252547053" Properties=species:S:1:pos:R:3:initial_magmoms:R:1 pbc="T T T"
Si      -1.35913986      -1.35922131      -1.33897225       0.00000000
Si      -1.35575154       1.35698958       1.35569274       0.00000000
Si       1.35850127      -1.35876519       1.35456229       0.00000000
Si       1.36848464       1.36182771      -1.34810840       0.00000000
Si      -0.10536372       2.60014464      -2.63596341       0.00000000
Si       2.55220547      -0.14980284      -2.69105780       0.00000000
Si      -2.73807207      -0.02958264      -2.65591085       0.00000000
Si      -2.71301805      -0.00013032       2.71231041       0.00000000
Si      -2.71096551      -2.71529865      -0.00246645       0.00000000
Si       0.00144981       2.71477737       2.71234466       0.00000000
