10
Lattice="16.28999089631971 0.0 0.0 0.0 16.28999089631971 0.0 0.0 0.0 34.25627252547053" Properties=species:S:1:pos:R:3:initial_magmoms:R:1 pbc="T T T"
Si      -1.85083722      -0.09008370       1.41869006       0.00000000
Si       0.22532328       2.35633221       0.05655714       0.00000000
Si      -0.40350330      -0.34863858      -2.40444911       0.00000000
Si       1.75246191      -1.16623368       1.32979499       0.00000000
Si      -1.89076401       2.26470096       1.28067146       0.00000000
Si       1.17745749      -2.13921909      -2.27907108       0.00000000
Si       2.00132424       2.94616053       1.45232974       0.00000000
Si       0.09026289       1.61520237      -3.63870330       0.00000000
Si       0.97940367      -3.28421061       2.04623107       0.00000000
Si      -1.52889795      -0.10702530       3.73760122       0.00000000
