10
Lattice="16.28999089631971 0.0 0.0 0.0 16.28999089631971 0.0 0.0 0.0 34.25627252547053" Properties=species:S:1:pos:R:3:initial_magmoms:R:1 pbc="T T T"
Si      -1.67229882      -0.59091975       1.54396532       0.00000000
Si       2.00538045      -1.18118790       0.37757285       0.00000000
Si      -0.83564442      -0.22019193      -2.19627363       0.00000000
Si       0.42135714       2.31883263       0.54265392       0.00000000
Si      -0.00821016       1.91596464      -2.75307539       0.00000000
Si      -2.46178715       1.60073685       1.87470982       0.00000000
Si       2.74168845       2.17730511       0.25445573       0.00000000
Si       2.33210898       1.78958682      -2.09120958       0.00000000
Si       1.28277234      -3.34611913       0.92605033       0.00000000
Si       3.47439636       0.30892356       1.53026281       0.00000000
