10
Lattice="16.28999089631971 0.0 0.0 0.0 16.28999089631971 0.0 0.0 0.0 34.25627252547053" Properties=species:S:1:pos:R:3:initial_magmoms:R:1 pbc="T T T"
Si      -1.34322332      -1.34328969       1.37237556       0.00000000
Si       1.35568338      -1.35757602      -1.35867304       0.00000000
Si      -1.35928526       1.35775521      -1.35939242       0.00000000
Si       1.35950012       1.34100909       1.39388851       0.00000000
Si      -2.71098059       2.71313208      -0.00184984       0.00000000
Si       2.71445997       0.00011403      -2.71594157       0.00000000
Si       2.71283097       2.71787247       0.00013703       0.00000000
Si      -0.00108581       2.71477737      -2.71631839       0.00000000
Si      -0.00094763      -2.71515204      -2.71618137       0.00000000
Si      -2.71555808      -0.00004887      -2.71618137       0.00000000
