10
Lattice="16.28999089631971 0.0 0.0 0.0 16.28999089631971 0.0 0.0 0.0 34.25627252547053" Properties=species:S:1:pos:R:3:initial_magmoms:R:1 pbc="T T T"
Si      -1.47384836       1.23831693      -1.28785501       0.00000000
Si       1.34902524       1.35335691       1.34307272       0.00000000
Si       1.18372083      -1.51163055      -1.34294940       0.00000000
Si      -1.36848464      -1.36182771       1.34810840       0.00000000
Si      -2.30002829      -0.57565602      -2.57769414       0.00000000
Si      -0.43746227      -2.58388722      -2.74351245       0.00000000
Si       2.70539091      -0.00498474       2.70301325       0.00000000
Si      -0.01015900       2.70992527       2.70287622       0.00000000
Si       2.69514450       2.71913925      -0.04128226       0.00000000
Si      -0.00998337      -2.72059290       2.70267069       0.00000000
