10
Lattice="16.28999089631971 0.0 0.0 0.0 16.28999089631971 0.0 0.0 0.0 34.25627252547053" Properties=species:S:1:pos:R:3:initial_magmoms:R:1 pbc="T T T"
Si       1.35749084      -1.35742941      -1.35716576       0.00000000
Si      -1.35819944      -1.35702216       1.35692597       0.00000000
Si      -1.35751526       1.35762489      -1.35706299       0.00000000
Si       1.35742405       1.35842310       1.35692597       0.00000000
Si      -2.70989477      -0.00164529       2.71446855       0.00000000
Si      -2.71471661      -0.00016290      -2.71371491       0.00000000
Si      -2.71432565       2.71454697      -0.00013703       0.00000000
Si      -0.00063943       2.71460050      -2.71463983       0.00000000
Si      -2.71447226      -2.71482624       0.00013703       0.00000000
Si       2.71491047      -0.00030951      -2.71450281       0.00000000
