10
Lattice="16.28999089631971 0.0 0.0 0.0 16.28999089631971 0.0 0.0 0.0 34.25627252547053" Properties=species:S:1:pos:R:3:initial_magmoms:R:1 pbc="T T T"
Si      -1.33708646      -1.35234856       1.34911553       0.00000000
Si       1.35509994      -1.35576620      -1.35428823       0.00000000
Si      -1.35850944       1.35602847      -1.35517890       0.00000000
Si       1.35609363       1.34162811       1.39841034       0.00000000
Si       0.08376318      -2.65382915       2.69374350       0.00000000
Si      -2.63883795      -0.03367143       2.72457416       0.00000000
Si       2.71388142      -0.00063531      -2.71272148       0.00000000
Si       2.71300176       2.71479366       0.00705680       0.00000000
Si      -0.00166158       2.71494027      -2.71299553       0.00000000
Si      -0.00055386      -2.71555308      -2.71244743       0.00000000
