10
Lattice="16.28999089631971 0.0 0.0 0.0 16.28999089631971 0.0 0.0 0.0 34.25627252547053" Properties=species:S:1:pos:R:3:initial_magmoms:R:1 pbc="T T T"
Si      -1.21454982       1.74121108       1.20633531       0.00000000
Si       1.98219978       0.96041346      -1.34849892       0.00000000
Si      -1.78225143      -0.66824838      -1.88111574       0.00000000
Si       1.27412235      -0.85962330       2.32038417       0.00000000
Si      -0.07602543       0.32534211      -3.06936373       0.00000000
Si      -1.43889081      -2.98856340       0.90378374       0.00000000
Si       1.64559951       1.32150086       3.23290327       0.00000000
Si      -3.49929467       1.81537619       0.30292839       0.00000000
Si      -0.06164136       3.94547777       0.55824053       0.00000000
Si       3.60106740      -0.74267739      -1.59987159       0.00000000
