10
Lattice="16.28999089631971 0.0 0.0 0.0 16.28999089631971 0.0 0.0 0.0 34.397273925272025" Properties=species:S:1:pos:R:3:initial_magmoms:R:1 pbc="T T T"
Si       1.88704989       0.91645911       1.01056805       0.00000000
Si       0.13317075       0.25985808      -2.33134710       0.00000000
Si      -1.05292207      -1.88971331       0.97070503       0.00000000
Si      -1.81285708       1.56387258      -0.32113489       0.00000000
Si       0.41383116       2.15184384       2.40660283       0.00000000
Si      -2.34550441      -0.55094409       2.38985135       0.00000000
Si      -1.73647002       1.63763370      -2.72055247       0.00000000
Si      -0.83203293       3.44316843       0.93346996       0.00000000
Si       2.72951982       2.52086121      -0.60701079       0.00000000
Si      -0.48203739      -1.89183915      -3.30991569       0.00000000
