10
Lattice="16.28999089631971 0.0 0.0 0.0 16.28999089631971 0.0 0.0 0.0 34.397273925272025" Properties=species:S:1:pos:R:3:initial_magmoms:R:1 pbc="T T T"
Si       0.19934399       2.27134728       0.42370586       0.00000000
Si       2.09454539      -0.88029531       0.47960146       0.00000000
Si      -0.86781880      -0.82556091      -1.99466463       0.00000000
Si      -1.56484739      -0.86990229       1.48627264       0.00000000
Si      -2.13460643       2.83488354       0.18350956       0.00000000
Si       1.11429464       2.10544992       2.65471429       0.00000000
Si       1.52014370      -2.94604650       1.38665808       0.00000000
Si       1.83634889       2.85798276      -1.25656752       0.00000000
Si      -3.12850820      -0.21181887      -1.83024557       0.00000000
Si       2.74878437       0.41995620       2.33856877       0.00000000
