10
Lattice="16.28999089631971 0.0 0.0 0.0 16.28999089631971 0.0 0.0 0.0 34.397273925272025" Properties=species:S:1:pos:R:3:initial_magmoms:R:1 pbc="T T T"
Si       1.35329175      -1.35274223      -1.35969060       0.00000000
Si      -1.36098063       1.36246913      -1.36020656       0.00000000
Si       1.35366642       1.37171696       1.36952823       0.00000000
Si      -1.35597960      -1.35865550       1.39439747       0.00000000
Si       2.71060713      -2.71155629       0.00065355       0.00000000
Si      -0.00361638      -2.71064405      -2.71621665       0.00000000
Si       2.70484047       2.72258313      -0.00137589       0.00000000
Si       2.71179630       0.00416761      -2.71666382       0.00000000
Si      -2.71526607      -2.71370657       0.00213263       0.00000000
Si      -2.71733490       0.00339994      -2.71693899       0.00000000
