10
Lattice="16.28999089631971 0.0 0.0 0.0 16.28999089631971 0.0 0.0 0.0 34.397273925272025" Properties=species:S:1:pos:R:3:initial_magmoms:R:1 pbc="T T T"
Si       1.09991709       1.56105441      -1.34833949       0.00000000
Si      -1.26232839       1.40773293       1.39769961       0.00000000
Si      -1.72188558      -1.16181909      -1.25728986       0.00000000
Si       1.82645109      -1.66812858       0.37052764       0.00000000
Si      -1.37845980      -3.02149201       1.17845126       0.00000000
Si       2.35664172       0.13695003      -2.69963716       0.00000000
Si      -0.56609379      -1.77155379       3.22299197       0.00000000
Si      -0.37620126      -2.56676806      -2.69127861       0.00000000
Si      -0.93120156       0.63182394       3.62409881       0.00000000
Si       2.08046106       3.24052083       0.01430927       0.00000000
