10
Lattice="16.28999089631971 0.0 0.0 0.0 16.28999089631971 0.0 0.0 0.0 34.397273925272025" Properties=species:S:1:pos:R:3:initial_magmoms:R:1 pbc="T T T"
Si       1.34723187       0.05330740       1.96549573       0.00000000
Si      -0.45660870      -2.13391737      -1.04364827       0.00000000
Si       1.07732286       1.13492267      -1.84665308       0.00000000
Si      -2.00946924       1.35307835       0.16211444       0.00000000
Si      -2.79137295      -1.84110462      -1.01719675       0.00000000
Si      -3.38895531       0.42823804      -1.47712296       0.00000000
Si       0.13247028       1.22143886       3.63823609       0.00000000
Si      -1.45283994       3.52236878      -0.61017358       0.00000000
Si       0.71221509       3.53830040      -1.44554624       0.00000000
Si       2.97198018       1.74863213       1.81067351       0.00000000
