10
Lattice="16.28999089631971 0.0 0.0 0.0 16.28999089631971 0.0 0.0 0.0 34.397273925272025" Properties=species:S:1:pos:R:3:initial_magmoms:R:1 pbc="T T T"
Si      -2.19331818      -0.81645480       0.12324550       0.00000000
Si      -0.23288184       2.27269935      -0.57536352       0.00000000
Si       1.21476159      -1.16813147      -1.67274037       0.00000000
Si       0.54923364       0.68471757       2.26096848       0.00000000
Si       2.83950990       0.52719327      -1.82756258       0.00000000
Si      -1.61775990       1.43679429       2.82236670       0.00000000
Si       1.91531304       2.69202024      -1.40327197       0.00000000
Si      -3.36684978       0.44792613      -1.43749728       0.00000000
Si      -2.87323020      -0.45273168       2.31600414       0.00000000
Si      -1.40905242       3.19313322       1.28659635       0.00000000
