10
Lattice="16.28999089631971 0.0 0.0 0.0 16.28999089631971 0.0 0.0 0.0 34.397273925272025" Properties=species:S:1:pos:R:3:initial_magmoms:R:1 pbc="T T T"
Si       1.72265121      -0.92489733       1.35140085       0.00000000
Si      -1.82941587      -0.26772615       1.51179543       0.00000000
Si      -0.24671205       2.33693082      -0.45614250       0.00000000
Si       0.04320108      -1.26733757      -2.12764457       0.00000000
Si       0.35632746       2.16958365      -2.73847170       0.00000000
Si      -0.97966431       0.31583052      -3.49462739       0.00000000
Si       3.63108987      -0.71799804       0.02992565       0.00000000
Si      -1.41493311      -3.03869492      -1.65334029       0.00000000
Si       1.25081136      -3.23839403       1.42934512       0.00000000
Si      -1.27203723      -2.47107978       2.53993052       0.00000000
