10
Lattice="16.28999089631971 0.0 0.0 0.0 16.28999089631971 0.0 0.0 0.0 34.397273925272025" Properties=species:S:1:pos:R:3:initial_magmoms:R:1 pbc="T T T"
Si      -1.02286539       1.58316808      -1.36698283       0.00000000
Si      -1.45813419      -1.77135735       0.47430428       0.00000000
Si      -0.04320108       1.26733757       2.12764457       0.00000000
Si       1.84640634      -0.51389900      -1.59001488       0.00000000
Si       3.30452424       0.75345322      -0.16410949       0.00000000
Si       0.31312638       3.43692121      -0.61082713       0.00000000
Si      -3.67710912      -0.95697886       0.46415707       0.00000000
Si      -1.45552779      -3.37119825      -1.22585073       0.00000000
Si       1.67945013       0.34244023       3.47904542       0.00000000
Si      -0.91158840      -2.73148995       2.70397121       0.00000000
