10
Lattice="16.28999089631971 0.0 0.0 0.0 16.28999089631971 0.0 0.0 0.0 34.397273925272025" Properties=species:S:1:pos:R:3:initial_magmoms:R:1 pbc="T T T"
Si       0.02181231      -0.63984499       2.27857989       0.00000000
Si      -0.55737864       2.20335363      -1.02813509       0.00000000
Si       0.40364991      -1.52774773      -1.96360388       0.00000000
Si       2.52284859      -0.76731424      -1.11058540       0.00000000
Si       2.99468844       1.54618245      -1.18852967       0.00000000
Si      -2.52012816       1.61808651      -2.25546491       0.00000000
Si       1.27203723       2.47107978      -2.53993052       0.00000000
Si       0.91352691       1.09532575       3.67951770       0.00000000
Si       2.03419746      -2.59410742       2.46970870       0.00000000
Si       2.24961642       2.52801333       2.35618018       0.00000000
