10
Lattice="16.28999089631971 0.0 0.0 0.0 16.28999089631971 0.0 0.0 0.0 34.397273925272025" Properties=species:S:1:pos:R:3:initial_magmoms:R:1 pbc="T T T"
Si       1.30124520      -1.34773686       1.46793200       0.00000000
Si       1.47844782       1.38779397      -1.28030994       0.00000000
Si      -1.40427945       1.37068947       1.45821821       0.00000000
Si      -1.79607024      -0.98556129      -1.51820162       0.00000000
Si      -2.63854017      -2.58996339       0.09937722       0.00000000
Si      -3.49591545       0.76385439      -1.22282109       0.00000000
Si       2.67877647      -2.69332344       0.08715586       0.00000000
Si       2.56520259      -0.07636752      -2.85457086       0.00000000
Si      -2.80443753       2.66027103      -0.01164692       0.00000000
Si       2.65235409       0.01681128       2.83823073       0.00000000
