10
Lattice="16.28999089631971 0.0 0.0 0.0 16.28999089631971 0.0 0.0 0.0 34.397273925272025" Properties=species:S:1:pos:R:3:initial_magmoms:R:1 pbc="T T T"
Si      -1.35700587      -1.35790182       1.35807393       0.00000000
Si       1.35855342       1.35674523       1.35831471       0.00000000
Si      -1.35878148       1.35896067      -1.35656045       0.00000000
Si       1.36070370      -1.35896067      -1.35996578       0.00000000
Si      -2.69390988      -0.01233153      -2.70144301       0.00000000
Si      -2.71153566       2.71523349       0.00027518       0.00000000
Si      -2.71318095      -0.00087966       2.71459998       0.00000000
Si       0.00084708       2.71322982       2.71470317       0.00000000
Si      -2.71451673      -2.71518462       0.00151348       0.00000000
Si       2.71534752       2.71469592       0.00137589       0.00000000
