10
Lattice="16.28999089631971 0.0 0.0 0.0 16.28999089631971 0.0 0.0 0.0 34.397273925272025" Properties=species:S:1:pos:R:3:initial_magmoms:R:1 pbc="T T T"
Si       0.24324228       2.29695516       0.29488799       0.00000000
Si       1.26232839      -1.40773293      -1.39769961       0.00000000
Si       0.33112683      -0.77590899       2.22639920       0.00000000
Si      -1.82333970       1.22979726      -1.42717809       0.00000000
Si      -2.24334477       2.30602869       0.61543637       0.00000000
Si       2.36224548       0.15332148      -2.74603910       0.00000000
Si      -1.83392820      -0.79184061       3.06177186       0.00000000
Si      -0.45955719      -2.56955202      -2.65498947       0.00000000
Si       0.69623460      -3.17928672       1.82529236       0.00000000
Si      -3.36425967       0.33943473       1.58059002       0.00000000
