10
Lattice="16.28999089631971 0.0 0.0 0.0 16.28999089631971 0.0 0.0 0.0 34.397273925272025" Properties=species:S:1:pos:R:3:initial_magmoms:R:1 pbc="T T T"
Si       2.28231045      -0.45126558       0.09999293       0.00000000
Si       0.21383883       2.06959563      -1.09056618       0.00000000
Si      -0.60303951       0.16734717       2.28232919       0.00000000
Si      -1.33599177      -1.85375313      -0.75615570       0.00000000
Si       2.69358408      -0.39744342      -2.20070442       0.00000000
Si      -0.31312638      -3.43692121       0.61082713       0.00000000
Si      -0.35632746      -2.16958365       2.73847170       0.00000000
Si      -2.03048334       2.59517619      -1.42783164       0.00000000
Si       1.42943121       1.44544428      -3.02754655       0.00000000
Si      -3.50298531      -1.10167641      -0.19475747       0.00000000
