10
Lattice="16.28999089631971 0.0 0.0 0.0 16.28999089631971 0.0 0.0 0.0 34.397273925272025" Properties=species:S:1:pos:R:3:initial_magmoms:R:1 pbc="T T T"
Si      -1.35785295      -1.35583299       1.35490938       0.00000000
Si       1.35770634      -1.35648459      -1.35638846       0.00000000
Si      -1.35744570       1.35850455      -1.35680123       0.00000000
Si       1.35909099       1.35646830       1.35931223       0.00000000
Si      -2.70728397      -0.00667890       2.71425601       0.00000000
Si      -2.71238274       0.00200367      -2.71442799       0.00000000
Si      -0.00138465      -2.71264338       2.71497835       0.00000000
Si       2.71450044       0.00146610      -2.71332728       0.00000000
Si      -0.00084708      -2.71322982      -2.71470317       0.00000000
Si      -2.71402803      -2.71410948      -0.00010319       0.00000000
