10
Lattice="16.28999089631971 0.0 0.0 0.0 16.28999089631971 0.0 0.0 0.0 34.397273925272025" Properties=species:S:1:pos:R:3:initial_magmoms:R:1 pbc="T T T"
Si      -1.35420399       1.35125550      -1.36123848       0.00000000
Si       1.35609363       1.34842104       1.38425027       0.00000000
Si       1.36296801      -1.36617714      -1.36055053       0.00000000
Si      -1.37021706      -1.36317978       1.37602932       0.00000000
Si       2.67437817      -0.14887431       2.70916521       0.00000000
Si      -2.70811476       2.70555723       0.00000000       0.00000000
Si       2.71775844       2.70770751      -0.00147908       0.00000000
Si       0.00353493       2.70861975      -2.71834928       0.00000000
Si      -2.71129131      -0.00649971      -2.71948439       0.00000000
Si      -2.70340695      -2.72932434      -0.00560676       0.00000000
