10
Lattice="16.28999089631971 0.0 0.0 0.0 16.28999089631971 0.0 0.0 0.0 34.397273925272025" Properties=species:S:1:pos:R:3:initial_magmoms:R:1 pbc="T T T"
Si       1.41245703      -1.22808681      -1.36629488       0.00000000
Si       1.84718826       0.97565697       1.12465390       0.00000000
Si      -1.31828454       1.49729535      -1.32491494       0.00000000
Si      -0.77708187      -1.99756125       1.12131736       0.00000000
Si       0.56117421       1.50219864       3.04797854       0.00000000
Si       0.04606812      -2.57297292      -2.71635424       0.00000000
Si       2.80227096      -2.51168994       0.05682433       0.00000000
Si      -2.72246625      -2.64805353      -0.00264859       0.00000000
Si      -2.67437817       0.14887431      -2.70916521       0.00000000
Si       2.75923278       0.14072931      -2.70875244       0.00000000
