10
Lattice="16.28999089631971 0.0 0.0 0.0 16.28999089631971 0.0 0.0 0.0 34.397273925272025" Properties=species:S:1:pos:R:3:initial_magmoms:R:1 pbc="T T T"
Si       1.35407367      -1.35508365       1.35889946       0.00000000
Si       1.34307792       1.35930276      -1.36678332       0.00000000
Si      -1.36327752       1.35936792       1.35817712       0.00000000
Si      -1.35553977      -1.36216980      -1.38223115       0.00000000
Si      -2.50688439       0.23092704      -2.76202353       0.00000000
Si       2.70881523      -2.71332756       0.00072234       0.00000000
Si       2.71085148       0.00179190       2.71545991       0.00000000
Si      -0.00428427      -2.71305063       2.71545991       0.00000000
Si       2.71060713       2.71855665       0.00006879       0.00000000
Si      -0.00413766       2.71665072       2.71542551       0.00000000
