10
Lattice="16.28999089631971 0.0 0.0 0.0 16.28999089631971 0.0 0.0 0.0 34.397273925272025" Properties=species:S:1:pos:R:3:initial_magmoms:R:1 pbc="T T T"
Si      -1.29258234       1.33876921       1.41914632       0.00000000
Si       1.05292207       1.88971331      -0.97070503       0.00000000
Si      -1.27940352      -1.30857098      -1.57627113       0.00000000
Si       1.45106596      -1.36982514       1.39106437       0.00000000
Si      -2.53878577      -2.63578620       0.01121008       0.00000000
Si      -2.63175280       2.68389967      -0.06502120       0.00000000
Si      -0.75993502       3.45358588      -1.29183992       0.00000000
Si      -2.62613275      -0.01672657       2.78332577       0.00000000
Si       0.09160519       2.69448818       2.77802859       0.00000000
Si       0.24834594      -2.34561243      -3.07410126       0.00000000
