10
Lattice="16.28999089631971 0.0 0.0 0.0 16.28999089631971 0.0 0.0 0.0 34.397273925272025" Properties=species:S:1:pos:R:3:initial_magmoms:R:1 pbc="T T T"
Si       0.58161816      -0.40866723      -2.16568797       0.00000000
Si      -2.33476425       0.29281275       0.02645152       0.00000000
Si       0.45660870       2.13391737       1.04364827       0.00000000
Si       0.94190409      -2.20625244       0.53989991       0.00000000
Si       0.72156555       2.01890182      -2.84754552       0.00000000
Si       1.53393156       3.26884004      -0.80300481       0.00000000
Si       2.80622943      -1.65988584       1.96639006       0.00000000
Si      -3.14501256      -0.12048084       2.22450735       0.00000000
Si      -3.33053937      -0.94439646      -1.77245812       0.00000000
Si      -0.13967046      -2.63432106      -2.88552013       0.00000000
