10
Lattice="16.28999089631971 0.0 0.0 0.0 16.28999089631971 0.0 0.0 0.0 34.397273925272025" Properties=species:S:1:pos:R:3:initial_magmoms:R:1 pbc="T T T"
Si       0.78232725      -0.22356396      -2.17194828       0.00000000
Si       1.40768406       1.63025433       0.92016199       0.00000000
Si      -2.22850784       0.74492541      -0.18736206       0.00000000
Si       0.13681971      -2.14446447       1.04574651       0.00000000
Si      -0.47314305      -2.11308993      -2.67831083       0.00000000
Si       2.09956923      -1.55919735       2.27307632       0.00000000
Si       1.40279706       0.55368081       3.20300714       0.00000000
Si       0.21380625       3.58984359       0.17762762       0.00000000
Si       0.29507706      -3.51578762      -0.90220660       0.00000000
Si      -2.14796682       3.05535240      -0.11017453       0.00000000
