10
Lattice="16.28999089631971 0.0 0.0 0.0 16.28999089631971 0.0 0.0 0.0 34.397273925272025" Properties=species:S:1:pos:R:3:initial_magmoms:R:1 pbc="T T T"
Si       1.34884458      -1.37282346       1.38104788       0.00000000
Si      -1.37753127       1.34558658       1.38077614       0.00000000
Si       1.24941042       1.22293917      -1.65058992       0.00000000
Si      -1.36710567      -1.40450751      -1.43474691       0.00000000
Si       0.42031458      -2.20116996      -2.84479515       0.00000000
Si       2.62739781       2.68053579      -0.12408824       0.00000000
Si       2.11020660      -0.48786921      -3.08719287       0.00000000
Si      -2.67877647       2.69332344      -0.08715586       0.00000000
Si       2.69307909      -0.00933417       2.74973337       0.00000000
Si       2.72192868      -2.73837018      -0.06854693       0.00000000
