10
Lattice="16.28999089631971 0.0 0.0 0.0 16.28999089631971 0.0 0.0 0.0 34.397273925272025" Properties=species:S:1:pos:R:3:initial_magmoms:R:1 pbc="T T T"
Si      -0.44792613       2.05107390       1.03253795       0.00000000
Si      -1.81016109      -1.24799319      -0.85305287       0.00000000
Si       1.22342787      -1.34547255       1.51124507       0.00000000
Si       1.55936025       0.51751701      -1.76822725       0.00000000
Si      -1.65309291      -0.24257439      -2.99197975       0.00000000
Si       1.85104899       2.31928875       1.75684175       0.00000000
Si       2.56205862      -2.40168357      -0.14350551       0.00000000
Si      -2.24731953       1.38458484       2.56218557       0.00000000
Si       0.68957199      -0.72099540      -3.55296520       0.00000000
Si       2.24723808       0.27543132       2.92108693       0.00000000
