10
Lattice="16.28999089631971 0.0 0.0 0.0 16.28999089631971 0.0 0.0 0.0 34.397273925272025" Properties=species:S:1:pos:R:3:initial_magmoms:R:1 pbc="T T T"
Si      -1.24586409       1.29132459      -1.47313287       0.00000000
Si       1.33512840       1.37129220       1.34488257       0.00000000
Si      -1.37514804      -1.34706897       1.34213078       0.00000000
Si       1.47321873      -1.23538473      -1.39603478       0.00000000
Si      -0.41383116      -2.15184384      -2.40660283       0.00000000
Si       0.61584345       2.11843305      -2.71823309       0.00000000
Si      -2.22668825      -0.58797126      -2.72773772       0.00000000
Si       2.69390988       0.01233153       2.70144301       0.00000000
Si       2.31568866       0.36901737      -3.01361362       0.00000000
Si      -0.02060685      -2.70285309       2.70295649       0.00000000
