10
Lattice="16.28999089631971 0.0 0.0 0.0 16.28999089631971 0.0 0.0 0.0 34.397273925272025" Properties=species:S:1:pos:R:3:initial_magmoms:R:1 pbc="T T T"
Si       0.49910931      -2.12866317      -0.84655178       0.00000000
Si       2.08865493       1.08958923       0.11887705       0.00000000
Si      -0.92843226      -0.75153915       2.08261851       0.00000000
Si      -1.11058704       1.27462734      -1.73259166       0.00000000
Si       1.27291689       1.70445528       2.31111973       0.00000000
Si      -3.57179427       1.28138769       0.43192681       0.00000000
Si      -2.94096402       0.45245475       2.50384776       0.00000000
Si       1.76731839      -3.39555276       0.68708593       0.00000000
Si      -2.29850271      -0.28044864      -3.14642360       0.00000000
Si       0.51637671      -0.13279608       3.92256412       0.00000000
