10
Lattice="16.28999089631971 0.0 0.0 0.0 16.28999089631971 0.0 0.0 0.0 34.397273925272025" Properties=species:S:1:pos:R:3:initial_magmoms:R:1 pbc="T T T"
Si      -1.35531171      -1.35848826       1.35724839       0.00000000
Si       1.35786924       1.35808101       1.35604449       0.00000000
Si      -1.35822762       1.35725022      -1.35745478       0.00000000
Si       1.35752715      -1.35842310      -1.35745478       0.00000000
Si       0.00210141       2.71159015       2.71418721       0.00000000
Si       2.71435383       2.71412800       0.00006879       0.00000000
Si      -2.71437012       0.00076563      -2.71459998       0.00000000
Si       2.71485882      -2.71417464      -0.00030958       0.00000000
Si       2.71373481      -0.00076563       2.71545991       0.00000000
Si      -2.71523349       2.71463247       0.00048156       0.00000000
