10
Lattice="16.28999089631971 0.0 0.0 0.0 16.28999089631971 0.0 0.0 0.0 34.397273925272025" Properties=species:S:1:pos:R:3:initial_magmoms:R:1 pbc="T T T"
Si      -1.98891126      -0.83046420       0.87458558       0.00000000
Si       1.00190016      -0.03969873       2.17359935       0.00000000
Si      -0.39011292       2.44786572      -0.22468312       0.00000000
Si       0.21056454       1.89496683      -2.44530357       0.00000000
Si      -2.41206030       1.19408958       2.10652463       0.00000000
Si      -0.27425844       1.75614345       2.96762647       0.00000000
Si      -3.51367155      -0.79770501      -0.88414802       0.00000000
Si       3.29383800      -0.14496471       1.73554982       0.00000000
Si       3.43358991       1.48265064       0.05376297       0.00000000
Si      -2.22765750      -1.32424668      -2.80747267       0.00000000
