10
Lattice="16.28999089631971 0.0 0.0 0.0 16.28999089631971 0.0 0.0 0.0 34.397273925272025" Properties=species:S:1:pos:R:3:initial_magmoms:R:1 pbc="T T T"
Si      -0.92362671      -1.60580304       1.42415113       0.00000000
Si       1.53758052      -1.61256339      -0.74036734       0.00000000
Si       0.95330709       1.45883466       1.68777198       0.00000000
Si      -1.52247969       0.11587077      -1.88638195       0.00000000
Si       2.83849992      -0.28300617      -2.25089007       0.00000000
Si      -1.89056853      -2.21480469      -2.32591057       0.00000000
Si      -2.96940636      -0.71776998       2.14133469       0.00000000
Si      -0.54068139       1.62681714      -3.43732150       0.00000000
Si       0.34966485      -3.16763937      -2.15419928       0.00000000
Si      -1.03373082       2.41935822       2.81025885       0.00000000
