10
Lattice="16.28999089631971 0.0 0.0 0.0 16.28999089631971 0.0 0.0 0.0 34.397273925272025" Properties=species:S:1:pos:R:3:initial_magmoms:R:1 pbc="T T T"
Si       1.27667078       0.46659121       1.91606682       0.00000000
Si      -2.15588376       0.94064650      -0.05063282       0.00000000
Si       0.91188392       0.36793897      -2.15130991       0.00000000
Si      -0.05152527      -2.33762544       0.39030609       0.00000000
Si      -2.65496049       0.65966029       2.20424734       0.00000000
Si       0.68802444       2.71860226       2.14831734       0.00000000
Si      -0.86926698      -3.03185637      -1.65949741       0.00000000
Si       0.58798755      -1.78606233      -3.11120077       0.00000000
Si       2.28242515      -2.90116170       0.63050238       0.00000000
Si       0.47016198      -0.90231939       3.79536293       0.00000000
