10
Lattice="16.28999089631971 0.0 0.0 0.0 16.28999089631971 0.0 0.0 0.0 34.397273925272025" Properties=species:S:1:pos:R:3:initial_magmoms:R:1 pbc="T T T"
Si      -2.30985684      -0.31886046      -0.44516977       0.00000000
Si       0.81552368      -2.22134742       0.41249234       0.00000000
Si       0.08140113       0.89498889       2.23262511       0.00000000
Si       0.80650880       1.36891060      -1.87929611       0.00000000
Si      -2.04639867      -2.26607976      -1.70971746       0.00000000
Si       2.72721383      -2.16473967      -0.93385211       0.00000000
Si      -0.52168725      -1.43530605      -3.40505684       0.00000000
Si       0.02005299       3.20489134       2.02641333       0.00000000
Si      -0.76196475      -3.73700160      -0.43099808       0.00000000
Si      -3.12512247       1.56197968      -1.59111559       0.00000000
