10
Lattice="16.28999089631971 0.0 0.0 0.0 16.28999089631971 0.0 0.0 0.0 34.397273925272025" Properties=species:S:1:pos:R:3:initial_magmoms:R:1 pbc="T T T"
Si       0.06134814      -2.30990245       0.20621177       0.00000000
Si      -2.06228142       0.82803699      -0.71938499       0.00000000
Si       1.38025563       0.85761963      -1.69912309       0.00000000
Si       0.94159688       1.10719872       1.86147831       0.00000000
Si       2.19602951      -2.42227413       1.27211509       0.00000000
Si       2.81123765      -0.27057690       2.25068369       0.00000000
Si      -2.07019836       0.37996425      -2.99934077       0.00000000
Si      -1.10576520      -2.51054312       2.47392212       0.00000000
Si       0.19780947       0.41603031      -3.67345892       0.00000000
Si      -0.02005299      -3.20489134      -2.02641333       0.00000000
