10
Lattice="16.28999089631971 0.0 0.0 0.0 16.28999089631971 0.0 0.0 0.0 34.397273925272025" Properties=species:S:1:pos:R:3:initial_magmoms:R:1 pbc="T T T"
Si       1.87181778       0.76968621      -1.22681871       0.00000000
Si       1.33917046      -1.34513046       1.48416753       0.00000000
Si      -1.35415512       1.37832948       1.45429004       0.00000000
Si      -1.50332265      -1.32890562      -1.62359149       0.00000000
Si       2.63175280      -2.68389967       0.06502120       0.00000000
Si      -2.67902082      -2.71945749       0.02411594       0.00000000
Si      -2.77355169       2.69944848      -0.03142537       0.00000000
Si       3.68467487      -0.79418637      -0.90568382       0.00000000
Si       2.85264194       2.64898206       0.02778613       0.00000000
Si       0.00562005      -2.70062625       2.84834697       0.00000000
