10
Lattice="16.28999089631971 0.0 0.0 0.0 16.28999089631971 0.0 0.0 0.0 34.397273925272025" Properties=species:S:1:pos:R:3:initial_magmoms:R:1 pbc="T T T"
Si      -1.35677781      -1.35658233       1.35676683       0.00000000
Si       1.35729909      -1.35812988      -1.35728279       0.00000000
Si      -1.35778779       1.35751086      -1.35748917       0.00000000
Si       1.35899325       1.35624024       1.35797074       0.00000000
Si       2.71186614      -0.00001629       2.71277692       0.00000000
Si       2.71446444       2.71467963       0.00013759       0.00000000
Si      -2.71489140       2.71450044       0.00020638       0.00000000
Si      -2.71469592      -0.00001629      -2.71477196       0.00000000
Si       2.71469754      -2.71485882       0.00051596       0.00000000
Si       2.71557857      -0.00048870      -2.71415281       0.00000000
