10
Lattice="16.28999089631971 0.0 0.0 0.0 16.28999089631971 0.0 0.0 0.0 34.397273925272025" Properties=species:S:1:pos:R:3:initial_magmoms:R:1 pbc="T T T"
Si      -2.26121490      -0.28414647       0.42611367       0.00000000
Si       0.53208027       0.95250888      -2.07322805       0.00000000
Si       0.29278017       1.25270100       1.97626208       0.00000000
Si       0.79501716      -2.23943517       0.24336085       0.00000000
Si       2.66576076       1.67936868      -1.29660597       0.00000000
Si       1.37091753      -0.49754547       3.11642916       0.00000000
Si       0.29594043      -2.52042138       2.49824100       0.00000000
Si      -0.69835230      -3.27298191      -1.24132952       0.00000000
Si      -2.77320960      -2.47897962      -0.30111390       0.00000000
Si      -2.67248853      -0.33796863       2.72681102       0.00000000
