10
Lattice="16.28999089631971 0.0 0.0 0.0 16.28999089631971 0.0 0.0 0.0 34.397273925272025" Properties=species:S:1:pos:R:3:initial_magmoms:R:1 pbc="T T T"
Si      -0.53208027      -0.95250888       2.07322805       0.00000000
Si       0.43624620      -1.48237371      -1.79306210       0.00000000
Si      -1.60883298       1.35099486      -1.11278683       0.00000000
Si       2.13368049       0.72685980       0.77662208       0.00000000
Si       1.87830216       3.03950223       0.66586280       0.00000000
Si       3.52901577      -0.03881907      -0.98916296       0.00000000
Si       2.61501741      -2.19631554      -1.40440708       0.00000000
Si      -0.99614979      -3.37176936      -1.45734452       0.00000000
Si      -2.94746373       2.40720588       0.54196375       0.00000000
Si      -3.11728698      -0.13162320      -2.37172776       0.00000000
