10
Lattice="16.28999089631971 0.0 0.0 0.0 16.28999089631971 0.0 0.0 0.0 34.397273925272025" Properties=species:S:1:pos:R:3:initial_magmoms:R:1 pbc="T T T"
Si       0.00791694       0.44807274       2.27995578       0.00000000
Si      -1.07813736       1.75024647      -1.14016708       0.00000000
Si       2.26800783       0.03606606      -0.67411815       0.00000000
Si      -1.07497710      -2.02287591      -0.61818815       0.00000000
Si      -0.57590037      -1.74188970      -2.87306831       0.00000000
Si      -1.37091753       0.49754547      -3.11642916       0.00000000
Si       2.07019836      -0.37996425       2.99934077       0.00000000
Si      -2.10535218      -0.25117551       3.02032312       0.00000000
Si       3.45045399       0.47765538       1.30021768       0.00000000
Si       2.85665417      -2.21594499      -0.90636867       0.00000000
