10
Lattice="16.28999089631971 0.0 0.0 0.0 16.28999089631971 0.0 0.0 0.0 34.397273925272025" Properties=species:S:1:pos:R:3:initial_magmoms:R:1 pbc="T T T"
Si      -1.35091809      -1.33486776       1.36564133       0.00000000
Si      -1.35287289       1.35625653      -1.35480619       0.00000000
Si       1.36232706      -1.35596331      -1.35501257       0.00000000
Si       1.36911999       1.34638479       1.36041294       0.00000000
Si       2.54437019      -0.15206715       2.77964526       0.00000000
Si      -0.01114704      -2.62847295       2.75395048       0.00000000
Si      -2.52005139       0.25366788       2.84279869       0.00000000
Si      -2.71186614       0.00001629      -2.71277692       0.00000000
Si       0.00283141      -2.71484253      -2.71226096       0.00000000
Si       0.00259830       2.71469592      -2.71263933       0.00000000
