10
Lattice="16.28999089631971 0.0 0.0 0.0 16.28999089631971 0.0 0.0 0.0 34.397273925272025" Properties=species:S:1:pos:R:3:initial_magmoms:R:1 pbc="T T T"
Si      -1.25592642       1.46829915      -1.31098747       0.00000000
Si       1.35060390       1.36096434       1.36118688       0.00000000
Si      -1.36230012      -1.35176049       1.36359469       0.00000000
Si       1.41103980      -1.30334661      -1.44325882       0.00000000
Si       2.54334141       0.55796508      -2.59043160       0.00000000
Si      -2.62767474       0.25070310      -2.70107699       0.00000000
Si      -0.00762372      -2.70638802       2.72132465       0.00000000
Si       2.70825697       0.00832419       2.72184061       0.00000000
Si      -2.70713736      -2.72536587       0.00278274       0.00000000
Si       2.72285746      -2.71296918      -0.02339704       0.00000000
