10
Lattice="16.28999089631971 0.0 0.0 0.0 16.28999089631971 0.0 0.0 0.0 34.397273925272025" Properties=species:S:1:pos:R:3:initial_magmoms:R:1 pbc="T T T"
Si      -1.34607528      -1.35220032       1.37592612       0.00000000
Si      -1.35555606       1.35896067      -1.36175444       0.00000000
Si       1.36119240      -1.35874890      -1.36158245       0.00000000
Si       1.36340784       1.35444834       1.36952823       0.00000000
Si       0.19401390      -2.46133755       2.83602242       0.00000000
Si      -2.71311579       2.71324611       0.00017199       0.00000000
Si       2.71406529      -2.71500543      -0.00677627       0.00000000
Si      -2.71116099      -2.71999017      -0.00103192       0.00000000
Si      -2.71269225      -0.00048870      -2.71934680       0.00000000
Si       2.70844056       2.72391606      -0.00467803       0.00000000
