10
Lattice="16.28999089631971 0.0 0.0 0.0 16.28999089631971 0.0 0.0 0.0 34.397273925272025" Properties=species:S:1:pos:R:3:initial_magmoms:R:1 pbc="T T T"
Si       0.90510498      -2.33719146       0.23823565       0.00000000
Si       1.41297831       0.82016892       1.98905787       0.00000000
Si      -1.75050711      -1.21306743       1.91393419       0.00000000
Si       1.36107837       2.13917022      -2.05307124       0.00000000
Si      -2.31808329       0.33650253      -2.32928150       0.00000000
Si       1.00864422      -2.41992837      -2.18900934       0.00000000
Si      -0.27425844      -0.13587489       3.42480089       0.00000000
Si      -0.41194152       1.25705043      -3.51395867       0.00000000
Si      -1.92902922       3.35811834       0.26733576       0.00000000
Si       3.42563780       0.90686430      -1.59734150       0.00000000
