10
Lattice="16.28999089631971 0.0 0.0 0.0 16.28999089631971 0.0 0.0 0.0 34.397273925272025" Properties=species:S:1:pos:R:3:initial_magmoms:R:1 pbc="T T T"
Si       0.25537833      -2.31264243       0.11075928       0.00000000
Si      -1.07248473       0.85713093      -1.95073929       0.00000000
Si       2.23381253       0.83031759      -0.19909153       0.00000000
Si      -1.46500857       0.68299083       1.77352443       0.00000000
Si       1.75578085       3.11982822      -0.08650919       0.00000000
Si      -1.87830216      -3.03950223      -0.66586280       0.00000000
Si       2.63555488       0.61286238      -2.55988095       0.00000000
Si      -0.50490855       3.73357026       0.07790987       0.00000000
Si      -0.94480371       2.91019221       2.20266506       0.00000000
Si      -2.22216777       2.79077022      -1.24838096       0.00000000
