10
Lattice="16.28999089631971 0.0 0.0 0.0 16.28999089631971 0.0 0.0 0.0 34.397273925272025" Properties=species:S:1:pos:R:3:initial_magmoms:R:1 pbc="T T T"
Si       1.27430154      -0.24747768      -1.90554125       0.00000000
Si      -0.49910931       2.12866317       0.84655178       0.00000000
Si       1.26820908      -1.26688959       1.53363771       0.00000000
Si      -1.70737119      -1.74638574      -0.67979370       0.00000000
Si       0.17208756      -2.30739705      -2.15378651       0.00000000
Si      -1.89983754      -2.24062434       1.63067248       0.00000000
Si      -1.42754157       1.37712402       2.92917029       0.00000000
Si      -3.39636726      -0.12865842      -1.19637225       0.00000000
Si       1.58954562       3.21825240       0.96542883       0.00000000
Si      -1.10664486      -0.93019158       3.42717430       0.00000000
