10
Lattice="16.28999089631971 0.0 0.0 0.0 16.28999089631971 0.0 0.0 0.0 34.397273925272025" Properties=species:S:1:pos:R:3:initial_magmoms:R:1 pbc="T T T"
Si       1.42060203       1.25566578       1.43548301       0.00000000
Si      -1.41978753      -1.53367092       1.36548796       0.00000000
Si      -0.94278375       1.93660407      -1.30740672       0.00000000
Si      -2.06669601      -0.98945460      -2.64934831       0.00000000
Si       2.93868246      -1.11767319      -1.85604354       0.00000000
Si      -2.61811251       2.80971549       0.17766484       0.00000000
Si       0.00956223       2.55901239       2.87874184       0.00000000
Si      -2.69757513      -0.16635348       2.88152458       0.00000000
Si       2.73241969      -0.15395679       2.85534480       0.00000000
Si      -0.00039096      -2.85478992       2.85120336       0.00000000
