10
Lattice="16.28999089631971 0.0 0.0 0.0 16.28999089631971 0.0 0.0 0.0 34.397273925272025" Properties=species:S:1:pos:R:3:initial_magmoms:R:1 pbc="T T T"
Si       1.34888488       1.35239580      -1.39976345       0.00000000
Si      -1.36503684      -1.36041048      -1.40265282       0.00000000
Si       1.42108554      -1.40082597       1.49483757       0.00000000
Si      -1.32183576       1.53352498       1.51193302       0.00000000
Si      -2.55316428      -0.02244762       2.79715348       0.00000000
Si       2.52651940       0.19890090       2.82645998       0.00000000
Si      -2.69373069      -2.71021617      -0.02782741       0.00000000
Si       2.71181000       2.70839562      -0.01788659       0.00000000
Si       2.70554324      -2.72808630      -0.02817138       0.00000000
Si      -2.73800691       2.70895762      -0.01988164       0.00000000
