10
Lattice="16.28999089631971 0.0 0.0 0.0 16.28999089631971 0.0 0.0 0.0 34.397273925272025" Properties=species:S:1:pos:R:3:initial_magmoms:R:1 pbc="T T T"
Si       1.23132852       1.55597260      -1.28522046       0.00000000
Si      -0.60067746       0.55289889       2.22062045       0.00000000
Si      -1.44759456      -1.26029214      -1.45221932       0.00000000
Si      -0.21056454      -1.89496683       2.44530357       0.00000000
Si       2.55316428       0.02244762      -2.79715348       0.00000000
Si      -0.14056641      -2.68776855      -2.82498089       0.00000000
Si      -0.18484263       2.73140524      -2.81703512       0.00000000
Si      -2.88417708       0.04390155      -2.82377699       0.00000000
Si      -2.43822204      -3.21921351      -0.36216910       0.00000000
Si       1.95455565       3.58737470      -0.18024182       0.00000000
