10
Lattice="16.28999089631971 0.0 0.0 0.0 16.28999089631971 0.0 0.0 0.0 34.397273925272025" Properties=species:S:1:pos:R:3:initial_magmoms:R:1 pbc="T T T"
Si      -0.36864270      -0.56435076      -2.21783427       0.00000000
Si       2.30412276      -0.58557663      -0.03539481       0.00000000
Si      -1.28671452      -1.56960666       1.26152073       0.00000000
Si      -0.47586348       2.35337950       0.08877941       0.00000000
Si       2.12796270      -2.93804811       0.00065355       0.00000000
Si       0.52009083       1.26057789      -3.37561276       0.00000000
Si       3.12186447       0.10865430       2.01440868       0.00000000
Si      -3.34477683      -0.46086039       1.87716348       0.00000000
Si       1.01750598       3.38692625       1.57346978       0.00000000
Si       0.03440448      -2.37068370       3.06359491       0.00000000
