10
Lattice="16.28999089631971 0.0 0.0 0.0 16.28999089631971 0.0 0.0 0.0 34.397273925272025" Properties=species:S:1:pos:R:3:initial_magmoms:R:1 pbc="T T T"
Si      -0.43989516      -0.82337805       2.12475520       0.00000000
Si       2.26068940      -0.61374204      -0.16441906       0.00000000
Si       0.17616006       2.35247148      -0.03604836       0.00000000
Si      -1.71725922      -0.94280004      -1.32629083       0.00000000
Si      -1.22044680       0.57785517      -3.01251493       0.00000000
Si      -0.56757618      -2.87643933      -2.02864916       0.00000000
Si       2.93831594       0.56791827      -2.01888033       0.00000000
Si      -0.96010002      -3.05057943       1.69561457       0.00000000
Si      -2.12796270       2.93804811      -0.00065355       0.00000000
Si       3.12850820       0.21181887       1.83024557       0.00000000
