10
Lattice="16.28999089631971 0.0 0.0 0.0 16.28999089631971 0.0 0.0 0.0 34.397273925272025" Properties=species:S:1:pos:R:3:initial_magmoms:R:1 pbc="T T T"
Si      -0.48871955      -1.43573544       1.84888890       0.00000000
Si       0.49612172       2.25544824       0.94403371       0.00000000
Si       1.78450923      -1.34239374      -1.20861769       0.00000000
Si      -2.03255447       0.29840022      -1.63338986       0.00000000
Si       2.90542413       0.62420022      -2.17377134       0.00000000
Si      -1.52468114       3.45576060       0.11743236       0.00000000
Si       2.96393781       2.31573753       0.66871778       0.00000000
Si       1.43717385      -1.94158881       3.03449480       0.00000000
Si      -3.17173046      -1.93601763      -1.23641070       0.00000000
Si      -1.40271791      -3.59323191       1.43364478       0.00000000
