10
Lattice="16.28999089631971 0.0 0.0 0.0 16.28999089631971 0.0 0.0 0.0 34.397273925272025" Properties=species:S:1:pos:R:3:initial_magmoms:R:1 pbc="T T T"
Si       1.53033147      -1.13127534       1.48118184       0.00000000
Si       1.12091490       1.96659396      -0.96515365       0.00000000
Si      -1.78450923       1.34239374       1.20861769       0.00000000
Si      -0.02143764      -2.57974956      -1.22815535       0.00000000
Si      -1.61883015      -1.37909511      -2.67352961       0.00000000
Si       1.54091997       0.89036253      -3.00776811       0.00000000
Si       3.36425967      -0.33943473      -1.58059002       0.00000000
Si      -2.27322877      -0.09334170       3.05750659       0.00000000
Si       1.73470581      -0.02793735       3.45940457       0.00000000
Si       3.69538650      -1.11534372       0.64580918       0.00000000
