10
Lattice="16.28999089631971 0.0 0.0 0.0 16.28999089631971 0.0 0.0 0.0 34.397273925272025" Properties=species:S:1:pos:R:3:initial_magmoms:R:1 pbc="T T T"
Si      -0.06098976      -1.24084188      -1.93921620       0.00000000
Si      -2.16380640      -0.32518098       0.79172250       0.00000000
Si       1.99293489      -0.88071885       0.83385918       0.00000000
Si       0.37890540       2.33406378      -0.29650467       0.00000000
Si       2.02105143      -0.66958416      -2.72292412       0.00000000
Si       3.25672938       1.05979482       1.13655536       0.00000000
Si      -3.38221844       0.03069036      -1.35903705       0.00000000
Si      -2.35674665       1.35821133       2.46828096       0.00000000
Si      -1.98688316      -0.73498851      -3.12482210       0.00000000
Si       3.16910547      -1.80115272      -1.02810069       0.00000000
