10
Lattice="16.28999089631971 0.0 0.0 0.0 16.28999089631971 0.0 0.0 0.0 34.397273925272025" Properties=species:S:1:pos:R:3:initial_magmoms:R:1 pbc="T T T"
Si       0.12691539       1.41993414       1.88098158       0.00000000
Si       1.07220780       1.07165394      -1.83193104       0.00000000
Si       1.19387781      -1.95958926       0.74253437       0.00000000
Si      -2.36177307      -0.53449119      -0.28780215       0.00000000
Si      -0.21380625      -3.58984359      -0.17762762       0.00000000
Si      -0.70955982       2.16632565      -2.89418825       0.00000000
Si      -2.44231409      -2.84491818      -0.36498968       0.00000000
Si      -0.26265996       3.65995575       1.42439191       0.00000000
Si       2.70233181       2.66910021      -1.29708753       0.00000000
Si      -3.77179379       0.38081133       1.38566056       0.00000000
