10
Lattice="16.28999089631971 0.0 0.0 0.0 16.28999089631971 0.0 0.0 0.0 34.397273925272025" Properties=species:S:1:pos:R:3:initial_magmoms:R:1 pbc="T T T"
Si      -0.69147792      -1.89641664      -1.21117416       0.00000000
Si       1.11208572       1.62491121      -1.36580098       0.00000000
Si       1.40015808      -1.28958156       1.46986513       0.00000000
Si      -1.32126561       1.42009704       1.46871282       0.00000000
Si      -1.81750788      -1.04997195      -3.07393616       0.00000000
Si      -2.55318546      -2.72352510       0.03392605       0.00000000
Si      -0.58349151       2.56634289      -2.76301902       0.00000000
Si       2.80443753      -2.66027103       0.01164692       0.00000000
Si       2.68009596       2.81087208       0.03546705       0.00000000
Si       0.02780703      -2.64355749       2.85194149       0.00000000
