10
Lattice="16.28999089631971 0.0 0.0 0.0 16.28999089631971 0.0 0.0 0.0 34.397273925272025" Properties=species:S:1:pos:R:3:initial_magmoms:R:1 pbc="T T T"
Si       1.35671265       1.35749457      -1.36034415       0.00000000
Si      -1.35859660      -1.35770634      -1.36003457       0.00000000
Si       1.36459701      -1.36533006       1.35353349       0.00000000
Si      -1.36681964       1.36651923       1.35470299       0.00000000
Si       2.71402803      -2.71448415      -0.00581314       0.00000000
Si       2.71379997       2.71524978      -0.00209823       0.00000000
Si      -2.71406780      -2.71614573      -0.00220143       0.00000000
Si      -2.71452392       2.71650411      -0.00457484       0.00000000
Si       2.71443528      -0.00014661      -2.71752375       0.00000000
Si      -0.00064020       2.71469592      -2.71755815       0.00000000
