10
Lattice="16.28999089631971 0.0 0.0 0.0 16.28999089631971 0.0 0.0 0.0 34.397273925272025" Properties=species:S:1:pos:R:3:initial_magmoms:R:1 pbc="T T T"
Si      -1.46621403       1.32398604       1.25116714       0.00000000
Si       1.99860381      -0.08136855       1.27693071       0.00000000
Si       0.15195312       0.40231413      -2.40106865       0.00000000
Si       1.20374955      -2.30435082       0.35694071       0.00000000
Si      -1.26406653      -2.36464011       0.63225665       0.00000000
Si      -3.28486940      -1.16432775      -0.19434471       0.00000000
Si      -0.77965569       2.59555086      -2.24514572       0.00000000
Si      -3.33303893       1.22865696      -0.18051699       0.00000000
Si       3.49278777       1.33369488       0.06721231       0.00000000
Si      -2.14384056       0.14232573       3.10562841       0.00000000
