10
Lattice="16.28999089631971 0.0 0.0 0.0 16.28999089631971 0.0 0.0 0.0 34.397273925272025" Properties=species:S:1:pos:R:3:initial_magmoms:R:1 pbc="T T T"
Si       1.12602996      -0.84644469       1.86276199       0.00000000
Si      -2.00340121      -1.20708900      -0.17288080       0.00000000
Si       1.36777356       0.53618535      -1.86079037       0.00000000
Si      -0.83489182       2.28477024       0.17927869       0.00000000
Si      -2.53093562      -0.50293746      -2.35611139       0.00000000
Si      -0.73567758      -1.67355315       3.10786221       0.00000000
Si       1.81750788       1.04997195       3.07393616       0.00000000
Si       0.97819821       2.77620696      -2.31738004       0.00000000
Si       1.23401637       3.61631484       0.31091713       0.00000000
Si      -1.64011467      -3.47908788      -0.54616022       0.00000000
