10
Lattice="16.28999089631971 0.0 0.0 0.0 16.28999089631971 0.0 0.0 0.0 34.397273925272025" Properties=species:S:1:pos:R:3:initial_magmoms:R:1 pbc="T T T"
Si       1.35672079       1.35560493      -1.35841790       0.00000000
Si      -1.36232706       1.35596331       1.35501257       0.00000000
Si      -1.35949566      -1.35887922      -1.35724839       0.00000000
Si       1.35729094      -1.35987291       1.35865868       0.00000000
Si       0.00679293       2.70234810       2.71542551       0.00000000
Si       2.71289588       2.71388142      -0.00340533       0.00000000
Si      -2.71519995       2.71221984       0.00020638       0.00000000
Si       2.71289588      -0.00141723      -2.71494395       0.00000000
Si      -0.00146447       2.71334385      -2.71535672       0.00000000
Si       2.71304248      -2.71589812      -0.00079114       0.00000000
