10
Lattice="16.28999089631971 0.0 0.0 0.0 16.28999089631971 0.0 0.0 0.0 34.397273925272025" Properties=species:S:1:pos:R:3:initial_magmoms:R:1 pbc="T T T"
Si      -1.36332869      -1.33783254      -1.37510059       0.00000000
Si       1.36338015       1.36519974      -1.37066334       0.00000000
Si      -1.28445770       1.32726033       1.52300895       0.00000000
Si       0.78233214      -1.88752230       1.27662114       0.00000000
Si      -2.17916447      -0.40827627       2.95022144       0.00000000
Si      -0.11460504      -1.64058219       3.40595117       0.00000000
Si       2.70127785      -2.70353727       0.00536598       0.00000000
Si      -2.70836141      -2.70730026      -0.00089433       0.00000000
Si      -2.70554324       2.72808630       0.02817138       0.00000000
Si       0.00349095      -2.70435177      -2.72980358       0.00000000
