10
Lattice="16.28999089631971 0.0 0.0 0.0 16.28999089631971 0.0 0.0 0.0 34.397273925272025" Properties=species:S:1:pos:R:3:initial_magmoms:R:1 pbc="T T T"
Si       1.10543386       1.59972687       1.33162241       0.00000000
Si       1.28445770      -1.32726033      -1.52300895       0.00000000
Si      -0.89470677      -1.73553660       1.42721249       0.00000000
Si      -1.42108554       1.40082597      -1.49483757       0.00000000
Si       1.16985267      -2.96784252       1.88294222       0.00000000
Si      -2.66772666      -2.61765639      -0.03367495       0.00000000
Si       2.06678984      -3.21478263      -0.24638781       0.00000000
Si       1.66240688       0.70534071       3.41854058       0.00000000
Si       2.69071313       2.81824674      -0.01771461       0.00000000
Si       2.64783785       0.03793941      -2.89367229       0.00000000
