10
Lattice="16.28999089631971 0.0 0.0 0.0 16.28999089631971 0.0 0.0 0.0 34.397273925272025" Properties=species:S:1:pos:R:3:initial_magmoms:R:1 pbc="T T T"
Si      -0.67762653      -1.18166031       1.85446127       0.00000000
Si       0.87208515       2.09548044       0.50065260       0.00000000
Si       1.46621403      -1.32398604      -1.25116714       0.00000000
Si      -1.86682490      -0.09532908      -1.43168414       0.00000000
Si      -1.30490135       3.03034725       0.53112860       0.00000000
Si      -1.81865537      -2.48831379      -1.44551185       0.00000000
Si       1.68233346       2.50877403      -1.69740322       0.00000000
Si      -2.93831594      -0.56791827       2.01888033       0.00000000
Si       3.46481784      -1.40535459       0.02576357       0.00000000
Si       0.20214750      -3.68862615      -0.61891050       0.00000000
