10
Lattice="16.28999089631971 0.0 0.0 0.0 16.28999089631971 0.0 0.0 0.0 34.397273925272025" Properties=species:S:1:pos:R:3:initial_magmoms:R:1 pbc="T T T"
Si       2.33476425      -0.29281275      -0.02645152       0.00000000
Si      -0.81024831      -0.41329359       2.19805583       0.00000000
Si      -0.59758236       2.26934265      -0.45992621       0.00000000
Si      -0.99577512      -1.23720921      -1.79890964       0.00000000
Si      -1.68233346      -2.50877403       1.69740322       0.00000000
Si       0.78190371       3.19418297       1.17931120       0.00000000
Si       2.79137295       1.84110462       1.01719675       0.00000000
Si       2.91638241      -0.70147998      -2.19213949       0.00000000
Si      -2.98723481       0.52157322       2.22853183       0.00000000
Si      -3.40940645      -0.97648776      -1.41606776       0.00000000
