10
Lattice="10.86 0.0 0.0 0.0 10.86 0.0 0.0 0.0 10.86" Properties=species:S:1:pos:R:3:initial_magmoms:R:1 pbc="T T T"
Si      -1.31180112       1.33025226       1.34691150       0.00000000
Si      -1.31180112      -1.38474774      -1.36808850       0.00000000
Si       1.40319888      -1.38474774       1.34691150       0.00000000
Si      -2.66930112       2.68775226      -0.01058850       0.00000000
Si      -2.66930112      -0.02724774       2.70441150       0.00000000
Si       0.04569888       2.68775226       2.70441150       0.00000000
Si      -2.66930112      -0.02724774      -2.72558850       0.00000000
Si      -2.66930112      -2.74224774      -0.01058850       0.00000000
Si       0.04569888      -2.74224774       2.70441150       0.00000000
Si       2.76919140       2.68360374       0.00558204       0.00000000
