10
Lattice="10.86 0.0 0.0 0.0 10.86 0.0 0.0 0.0 10.86" Properties=species:S:1:pos:R:3:initial_magmoms:R:1 pbc="T T T"
Si       1.34900748      -1.35335148       1.34132946       0.00000000
Si      -1.36599252       1.36164852       1.34132946       0.00000000
Si       1.34900748       1.36164852      -1.37367054       0.00000000
Si       2.70650748       0.00414852       2.69882946       0.00000000
Si      -0.00849252      -2.71085148       2.69882946       0.00000000
Si       2.70650748      -2.71085148      -0.01617054       0.00000000
Si      -0.00849252       2.71914852       2.69882946       0.00000000
Si      -2.72349252       0.00414852       2.69882946       0.00000000
Si       2.70650748       2.71914852      -0.01617054       0.00000000
Si       2.70650748       0.00414852      -2.73117054       0.00000000
