10
Lattice="16.28999089631971 0.0 0.0 0.0 16.28999089631971 0.0 0.0 0.0 34.474598006748145" Properties=species:S:1:pos:R:3:initial_magmoms:R:1 pbc="T T T"
Si      -1.38775162       1.23577211      -1.44814077       0.00000000
Si      -1.55553210      -1.12679984       1.36922837       0.00000000
Si       1.33579629      -1.47007901      -1.44069426       0.00000000
Si       0.86099166       1.96904039       1.22743427       0.00000000
Si      -0.03502350      -2.43249221       2.68309051       0.00000000
Si       1.94776272      -0.86044205       2.98946644       0.00000000
Si      -2.77264664       2.43742676       0.11648973       0.00000000
Si      -3.14466137       0.70320802       1.93157833       0.00000000
Si      -2.58670327      -2.74006370      -0.05939977       0.00000000
Si      -0.02251278       2.59038986      -2.81626596       0.00000000
