10
Lattice="16.28999089631971 0.0 0.0 0.0 16.28999089631971 0.0 0.0 0.0 34.474598006748145" Properties=species:S:1:pos:R:3:initial_magmoms:R:1 pbc="T T T"
Si      -1.42667820       1.16685270      -1.39208505       0.00000000
Si      -1.88320545      -0.83494395       1.30751881       0.00000000
Si       1.30318371      -1.56682270      -1.35430086       0.00000000
Si       0.85379148       1.89192060       1.42855919       0.00000000
Si      -0.05462037       2.50155756      -2.73790515       0.00000000
Si      -2.73601953       2.51602308       0.07849870       0.00000000
Si       2.70073539       2.60019351       0.00448170       0.00000000
Si       2.66734089      -0.21509316      -2.73635380       0.00000000
Si       2.53765620      -2.94545096       0.18499080       0.00000000
Si      -2.76670989      -0.21359448      -2.73618142       0.00000000
