10
Lattice="16.28999089631971 0.0 0.0 0.0 16.28999089631971 0.0 0.0 0.0 34.474598006748145" Properties=species:S:1:pos:R:3:initial_magmoms:R:1 pbc="T T T"
Si       0.12144195       1.71995033       1.57500736       0.00000000
Si      -0.99039942       0.68879170      -2.01900596       0.00000000
Si       2.22904215      -0.88345950      -0.06874239       0.00000000
Si      -1.52715492      -1.72812858       0.72572517       0.00000000
Si       1.43382951      -2.57276508      -1.45906923       0.00000000
Si      -2.08212264       1.17495209       2.42815072       0.00000000
Si       1.00092276       0.86528896      -3.30097908       0.00000000
Si      -1.66068405      -1.11410961       2.97109147       0.00000000
Si      -0.32431761      -3.56642250      -0.16251335       0.00000000
Si       2.28833775      -2.22505503       1.87024799       0.00000000
