10
Lattice="16.28999089631971 0.0 0.0 0.0 16.28999089631971 0.0 0.0 0.0 34.474598006748145" Properties=species:S:1:pos:R:3:initial_magmoms:R:1 pbc="T T T"
Si       1.35151614      -1.35708732       1.35764490       0.00000000
Si       1.35529542       1.35734796      -1.35702436       0.00000000
Si      -1.35935163      -1.35793440      -1.35723121       0.00000000
Si      -1.35927018       1.35770634       1.36291952       0.00000000
Si      -0.02054169      -2.69179218       2.70346501       0.00000000
Si       2.71316466      -0.00060273      -2.71439347       0.00000000
Si       2.71270854      -2.71521720      -0.00003447       0.00000000
Si       2.71402803       2.71466334      -0.00031027       0.00000000
Si      -0.00236205       2.71510317      -2.71466926       0.00000000
Si      -0.00201996      -2.71536381      -2.71453136       0.00000000
