10
Lattice="16.28999089631971 0.0 0.0 0.0 16.28999089631971 0.0 0.0 0.0 34.474598006748145" Properties=species:S:1:pos:R:3:initial_magmoms:R:1 pbc="T T T"
Si      -2.13605883       0.58709160      -0.70745362       0.00000000
Si       1.59914043       0.33264180      -1.70490772       0.00000000
Si       0.80764191       1.10465748       1.94785035       0.00000000
Si      -0.77382387      -2.12351553       0.82401230       0.00000000
Si      -2.89248498       1.38724011       1.45851763       0.00000000
Si       0.72848880      -2.32658667       2.64151412       0.00000000
Si      -0.01140300      -0.29393676       3.64679396       0.00000000
Si       1.75132161      -1.51384599      -3.13539749       0.00000000
Si       0.28235457       3.38401944       1.93509474       0.00000000
Si      -2.98258497      -1.12049136      -2.36154576       0.00000000
