10
Lattice="16.28999089631971 0.0 0.0 0.0 16.28999089631971 0.0 0.0 0.0 34.474598006748145" Properties=species:S:1:pos:R:3:initial_magmoms:R:1 pbc="T T T"
Si       1.31924565      -1.29902976       1.50375178       0.00000000
Si       1.12264164       1.60505370      -1.39025931       0.00000000
Si      -1.39711185       1.40667408       1.47820953       0.00000000
Si      -1.05979482      -1.52454852      -1.66946923       0.00000000
Si      -2.65585318      -2.54070243      -0.04528930       0.00000000
Si      -0.39472299       1.64880864      -3.32638829       0.00000000
Si       2.77480602      -2.52869670       0.10386513       0.00000000
Si       2.64114657       2.78570403       0.10445809       0.00000000
Si      -0.03935664      -2.65794156       2.86988778       0.00000000
Si       2.67773391       0.05810643       2.86995673       0.00000000
