10
Lattice="16.28999089631971 0.0 0.0 0.0 16.28999089631971 0.0 0.0 0.0 34.474598006748145" Properties=species:S:1:pos:R:3:initial_magmoms:R:1 pbc="T T T"
Si      -1.32804225       1.33695288       1.40271012       0.00000000
Si       1.40059791      -1.37531583       1.38797222       0.00000000
Si      -1.51850493      -1.18065033      -1.49471740       0.00000000
Si       1.00667313       1.79584218      -1.33341067       0.00000000
Si       0.42907860      -1.60909362      -2.81878403       0.00000000
Si       1.46251620       0.55535868      -3.28891438       0.00000000
Si      -2.69913897       2.60413569      -0.10217932       0.00000000
Si      -2.64114657      -2.78570403      -0.10445809       0.00000000
Si      -2.67734295      -0.01037673       2.76384386       0.00000000
Si       0.03665250       2.70062136       2.76156853       0.00000000
