10
Lattice="16.28999089631971 0.0 0.0 0.0 16.28999089631971 0.0 0.0 0.0 34.474598006748145" Properties=species:S:1:pos:R:3:initial_magmoms:R:1 pbc="T T T"
Si      -1.35703845      -1.35703845      -1.35733463       0.00000000
Si      -1.35681039       1.35718506       1.35747253       0.00000000
Si       1.35764118       1.35726651      -1.35698989       0.00000000
Si       1.35765747      -1.35775521       1.35764490       0.00000000
Si      -2.71355236       0.00262269       2.71515191       0.00000000
Si      -2.71474968       2.71459818       0.00024132       0.00000000
Si       2.71520091       2.71453302      -0.00013790       0.00000000
Si       0.00236205      -2.71510317       2.71466926       0.00000000
Si      -2.71504941      -2.71513575      -0.00031027       0.00000000
Si       2.71639008      -0.00043983       2.71435899       0.00000000
