10
Lattice="16.28999089631971 0.0 0.0 0.0 16.28999089631971 0.0 0.0 0.0 34.474598006748145" Properties=species:S:1:pos:R:3:initial_magmoms:R:1 pbc="T T T"
Si       1.35630540       1.35741312      -1.35602460       0.00000000
Si       1.35321030      -1.35879777       1.35909284       0.00000000
Si      -1.35718506       1.35549090       1.35940311       0.00000000
Si      -1.35873261      -1.35731538      -1.35671409       0.00000000
Si      -0.00193851      -2.68306074       2.72494270       0.00000000
Si       0.01936881       2.69909010       2.72683880       0.00000000
Si       2.71339272       0.00029322      -2.71418662       0.00000000
Si      -2.71402803      -2.71466334       0.00031027       0.00000000
Si      -0.00086337      -2.71526607      -2.71408319       0.00000000
Si      -0.00118917       2.71497285      -2.71449689       0.00000000
