10
Lattice="16.28999089631971 0.0 0.0 0.0 16.28999089631971 0.0 0.0 0.0 34.474598006748145" Properties=species:S:1:pos:R:3:initial_magmoms:R:1 pbc="T T T"
Si      -1.77868881       0.28632933       1.50412755       0.00000000
Si      -1.03382856       1.29352374      -1.73586593       0.00000000
Si       1.68375069       0.47680830       1.64540453       0.00000000
Si       0.79821000      -2.32652151       0.10662999       0.00000000
Si       2.08959975      -1.86580773      -1.92023618       0.00000000
Si      -1.27260738      -3.39242508       0.81280805       0.00000000
Si      -1.88929791      -1.78251696       2.67019701       0.00000000
Si      -3.78327105      -0.50137362       0.19419552       0.00000000
Si       1.33187040       2.72753244       2.32948436       0.00000000
Si      -2.86759386       2.50621650      -0.65677593       0.00000000
