10
Lattice="16.28999089631971 0.0 0.0 0.0 16.28999089631971 0.0 0.0 0.0 34.474598006748145" Properties=species:S:1:pos:R:3:initial_magmoms:R:1 pbc="T T T"
Si       0.37882395       2.03385537       1.11256485       0.00000000
Si      -1.87238889      -0.02534724      -1.54111882       0.00000000
Si       1.48678830       0.36683451      -1.89189805       0.00000000
Si      -0.80433504      -1.92700926       1.35819650       0.00000000
Si       2.45353464      -0.37952442       0.94267393       0.00000000
Si       1.83866859      -1.88388963      -2.57597788       0.00000000
Si       2.10409785       3.06897084      -0.12707344       0.00000000
Si      -3.73207158      -0.20766492      -0.18733507       0.00000000
Si      -1.62377091      -2.07436860      -2.71725486       0.00000000
Si       0.44571069       2.12232636      -3.17045818       0.00000000
