10
Lattice="16.28999089631971 0.0 0.0 0.0 16.28999089631971 0.0 0.0 0.0 34.474598006748145" Properties=species:S:1:pos:R:3:initial_magmoms:R:1 pbc="T T T"
Si      -1.85968269      -0.18231768       1.35378375       0.00000000
Si      -0.01609452       1.64849913      -1.62099650       0.00000000
Si       0.24861798      -2.04902136      -1.17613604       0.00000000
Si       1.87238889       0.02534724       1.54111882       0.00000000
Si       3.35917719       0.39218175      -0.35077923       0.00000000
Si      -0.84028707       0.17086581      -3.33703953       0.00000000
Si       2.31809958       2.14767360      -1.62933936       0.00000000
Si       1.06805385      -1.90166202       2.89931531       0.00000000
Si      -1.33393923      -1.68901236       3.08961520       0.00000000
Si      -2.45635281       1.92233403       2.16483359       0.00000000
