10
Lattice="16.28999089631971 0.0 0.0 0.0 16.28999089631971 0.0 0.0 0.0 34.474598006748145" Properties=species:S:1:pos:R:3:initial_magmoms:R:1 pbc="T T T"
Si       0.98528436       1.89091062      -0.98032022       0.00000000
Si       0.12909825      -2.23303320      -0.77740262       0.00000000
Si       0.28041606      -0.09145206       2.35158259       0.00000000
Si      -2.26390275       0.69730974      -0.21226022       0.00000000
Si      -1.30979745      -3.15540558       0.91143993       0.00000000
Si       2.59752195      -0.09208737       2.48282746       0.00000000
Si       3.32298081      -1.43842329       0.64377900       0.00000000
Si      -2.62405836       1.65061683       1.99611481       0.00000000
Si      -0.19908009       3.68204499       0.09559811       0.00000000
Si      -0.42795459      -2.27522430       2.91524259       0.00000000
