10
Lattice="16.28999089631971 0.0 0.0 0.0 16.28999089631971 0.0 0.0 0.0 34.474598006748145" Properties=species:S:1:pos:R:3:initial_magmoms:R:1 pbc="T T T"
Si       1.36179513      -1.25558433      -1.42576675       0.00000000
Si      -1.54267929       0.48648456      -1.78123453       0.00000000
Si       0.80400924       1.81566711       1.36012708       0.00000000
Si      -0.69590880      -1.52164890       1.77309852       0.00000000
Si       0.65342448      -3.43935657      -0.86210675       0.00000000
Si      -0.93887415       2.75688702      -2.12997975       0.00000000
Si       1.78237035       0.59825025       3.19359065       0.00000000
Si      -0.86812668      -3.69235656       0.94215682       0.00000000
Si      -1.27594683       2.84991921       2.39178000       0.00000000
Si       1.99184346       3.42590103      -0.01413459       0.00000000
