10
Lattice="16.28999089631971 0.0 0.0 0.0 16.28999089631971 0.0 0.0 0.0 34.474598006748145" Properties=species:S:1:pos:R:3:initial_magmoms:R:1 pbc="T T T"
Si       0.74994273      -1.58978997      -1.58634951       0.00000000
Si       1.53375237       1.08784620       1.48509209       0.00000000
Si      -1.13612976      -1.52643816       1.54418158       0.00000000
Si      -0.84071061       2.17886895      -1.27400948       0.00000000
Si      -1.49736051      -1.89050337      -2.73573325       0.00000000
Si       2.14876503      -0.09067014      -3.01252996       0.00000000
Si       0.13080870       2.41264674       2.93274677       0.00000000
Si      -2.78829414       2.60731224       0.05005714       0.00000000
Si       2.82333393       2.58577686       0.14751689       0.00000000
Si      -2.59169013      -0.29677122       2.94406823       0.00000000
