10
Lattice="16.28999089631971 0.0 0.0 0.0 16.28999089631971 0.0 0.0 0.0 34.474598006748145" Properties=species:S:1:pos:R:3:initial_magmoms:R:1 pbc="T T T"
Si      -1.35413883       1.35585321      -1.36167843       0.00000000
Si      -1.35374787      -1.34661285       1.37405482       0.00000000
Si       1.36207206      -1.35744570      -1.35947206       0.00000000
Si       1.35783666       1.36062781       1.38036368       0.00000000
Si       0.04522104      -2.72064177       2.66026832       0.00000000
Si      -2.71205694       2.71385603      -0.00151688       0.00000000
Si      -2.71158453      -0.00112198      -2.71780645       0.00000000
Si      -2.71401174      -2.71753038      -0.00365431       0.00000000
Si       0.00320913       2.71390490      -2.71790988       0.00000000
Si       2.72199384       2.71235735      -0.00168926       0.00000000
