10
Lattice="16.28999089631971 0.0 0.0 0.0 16.28999089631971 0.0 0.0 0.0 34.474598006748145" Properties=species:S:1:pos:R:3:initial_magmoms:R:1 pbc="T T T"
Si       0.01609452      -1.64849913       1.62099650       0.00000000
Si      -0.79763985       2.10693231       0.68087369       0.00000000
Si       2.33419410       0.49917447      -0.00834286       0.00000000
Si      -0.82419255      -1.47763332      -1.71604302       0.00000000
Si       2.60366328       0.71164494      -2.34127468       0.00000000
Si      -1.16885637       3.21846417      -1.28786828       0.00000000
Si      -1.88486703       0.07306065      -3.14018946       0.00000000
Si       0.26471250      -3.69752049       0.44486046       0.00000000
Si      -2.71485882       1.76761161       1.93992119       0.00000000
Si       3.37527171      -1.25631738       1.27021727       0.00000000
