10
Lattice="16.28999089631971 0.0 0.0 0.0 16.28999089631971 0.0 0.0 0.0 34.474598006748145" Properties=species:S:1:pos:R:3:initial_magmoms:R:1 pbc="T T T"
Si       0.48180933       1.94673971       1.21885009       0.00000000
Si       1.66426785      -0.27119120      -1.65829804       0.00000000
Si      -1.97167644       0.42964712      -1.28104230       0.00000000
Si      -0.55928457      -1.27759605       1.96629427       0.00000000
Si       3.07713213       1.42200623      -0.79601891       0.00000000
Si      -1.78140924      -2.89820670       0.86152069       0.00000000
Si      -1.65908763       2.21057255       2.17265933       0.00000000
Si      -2.29544019       2.68019696      -0.35436459       0.00000000
Si      -3.02425479      -1.74376698      -0.81177381       0.00000000
Si       1.70421093       3.31492052      -0.33078395       0.00000000
