10
Lattice="16.28999089631971 0.0 0.0 0.0 16.28999089631971 0.0 0.0 0.0 34.474598006748145" Properties=species:S:1:pos:R:3:initial_magmoms:R:1 pbc="T T T"
Si       1.46039850      -1.46994933       1.19375257       0.00000000
Si      -2.31604704       0.41027994       0.72265693       0.00000000
Si       1.13663475       0.78060051       2.12043028       0.00000000
Si       1.07802333      -0.96058709      -2.20934032       0.00000000
Si      -1.57112163       2.67009390       0.05481464       0.00000000
Si      -2.16961623      -0.78340891       2.79044447       0.00000000
Si       1.96858134       2.88487755       1.22033250       0.00000000
Si      -0.52395156       0.68092200       3.70702112       0.00000000
Si       0.49969575       3.73599747      -0.65136342       0.00000000
Si       2.87925750      -2.46831686      -1.24839484       0.00000000
