10
Lattice="16.28999089631971 0.0 0.0 0.0 16.28999089631971 0.0 0.0 0.0 34.474598006748145" Properties=species:S:1:pos:R:3:initial_magmoms:R:1 pbc="T T T"
Si       0.76000995      -0.28500984      -2.16055874       0.00000000
Si       1.49128434       1.12534578       1.40503513       0.00000000
Si      -1.18867478      -1.59886839       1.29122408       0.00000000
Si      -2.07820978       1.59712047      -1.75713677       0.00000000
Si       0.16073343       2.00248083      -2.71611720       0.00000000
Si      -1.10360352      -1.82603407      -2.62927564       0.00000000
Si       0.02586852       2.40743394       2.70676220       0.00000000
Si       3.20445477       2.02321800       0.05354360       0.00000000
Si      -2.67899103      -0.33534594       2.70857557       0.00000000
Si      -3.45899321      -0.50347503      -1.55845955       0.00000000
