10
Lattice="16.28999089631971 0.0 0.0 0.0 16.28999089631971 0.0 0.0 0.0 34.474598006748145" Properties=species:S:1:pos:R:3:initial_magmoms:R:1 pbc="T T T"
Si      -1.34265438      -1.34939844      -1.37504079       0.00000000
Si       1.35777150      -1.35444834       1.35847229       0.00000000
Si      -1.35752715       1.35913986       1.35829992       0.00000000
Si       1.37059173       1.35027810      -1.39490852       0.00000000
Si      -2.61830799       0.13167207      -2.76719479       0.00000000
Si       2.71650411      -2.70868491       0.00027580       0.00000000
Si      -2.71349046      -2.71256193      -0.00272349       0.00000000
Si       0.00032580      -2.71212210       2.71608272       0.00000000
Si      -2.71463076       0.00216657       2.71597930       0.00000000
Si       2.71524978       0.00208512       2.71549665       0.00000000
