10
Lattice="16.28999089631971 0.0 0.0 0.0 16.28999089631971 0.0 0.0 0.0 34.474598006748145" Properties=species:S:1:pos:R:3:initial_magmoms:R:1 pbc="T T T"
Si      -1.35514881      -1.32426297       1.36584986       0.00000000
Si      -1.35321030       1.35879777      -1.35909284       0.00000000
Si       1.36058967      -1.35690813      -1.35974785       0.00000000
Si       1.34824185       1.38448710       1.38246663       0.00000000
Si       0.03963357      -2.61431694       2.74124919       0.00000000
Si      -2.71039536       2.71428867       0.00031027       0.00000000
Si      -2.71194291       0.00148239      -2.71580692       0.00000000
Si       2.71303434       2.71557558       0.00492987       0.00000000
Si      -2.71572219      -2.71295289      -0.00113766       0.00000000
Si       0.00309510      -2.71352304      -2.71604825       0.00000000
