10
Lattice="16.28999089631971 0.0 0.0 0.0 16.28999089631971 0.0 0.0 0.0 34.474598006748145" Properties=species:S:1:pos:R:3:initial_magmoms:R:1 pbc="T T T"
Si       1.38803832       0.99478143       1.58848694       0.00000000
Si      -2.03372505      -0.34213887       1.17237831       0.00000000
Si       0.68059620      -1.89824112      -1.34226922       0.00000000
Si       0.09725130       1.75620861      -1.67519060       0.00000000
Si      -0.78828939      -1.04712120      -3.21396514       0.00000000
Si       3.13040043       1.60251246       0.14065644       0.00000000
Si      -3.47579730      -0.50311665      -0.65039813       0.00000000
Si       2.37687390       1.71792711      -2.25081329       0.00000000
Si      -2.54575233       1.71308898       2.25898377       0.00000000
Si       0.71211735       3.26057382       1.84346121       0.00000000
