10
Lattice="16.28999089631971 0.0 0.0 0.0 16.28999089631971 0.0 0.0 0.0 34.474598006748145" Properties=species:S:1:pos:R:3:initial_magmoms:R:1 pbc="T T T"
Si      -1.38803832      -0.99478143      -1.58848694       0.00000000
Si       1.74236211       0.60773103      -1.44783050       0.00000000
Si       0.17031195      -1.39908294       1.90489498       0.00000000
Si      -0.67592097       2.26579239       0.25497427       0.00000000
Si      -1.29078702       0.76142718      -3.26367754       0.00000000
Si       2.06193933       2.89176822      -0.90971620       0.00000000
Si      -3.42176337      -1.33692030      -0.41610863       0.00000000
Si       0.18787257       2.86541100       2.37664564       0.00000000
Si      -1.20692610      -0.36494487       3.56433068       0.00000000
Si       2.34844785       2.78342343       1.44024609       0.00000000
