10
Lattice="16.28999089631971 0.0 0.0 0.0 16.28999089631971 0.0 0.0 0.0 34.474598006748145" Properties=species:S:1:pos:R:3:initial_magmoms:R:1 pbc="T T T"
Si      -1.35622984       1.35653346       1.36302294       0.00000000
Si       1.36034369      -1.35964485       1.36278162       0.00000000
Si      -1.35371970      -1.36350558      -1.37161402       0.00000000
Si       1.35113984       1.37927430      -1.37342738       0.00000000
Si       0.13659654      -2.62702803      -2.78896551       0.00000000
Si      -2.71126755       2.71370223       0.00044817       0.00000000
Si       2.71402640       2.71440270       0.00317166       0.00000000
Si      -2.71405314      -2.71672402       0.00696387       0.00000000
Si      -2.71335267      -0.00022806       2.72015073       0.00000000
Si       0.00129017       2.71471221       2.71973703       0.00000000
