10
Lattice="16.28999089631971 0.0 0.0 0.0 16.28999089631971 0.0 0.0 0.0 34.474598006748145" Properties=species:S:1:pos:R:3:initial_magmoms:R:1 pbc="T T T"
Si       2.27962260      -0.03828150      -0.57562268       0.00000000
Si      -0.35188029       2.25072414       0.68407983       0.00000000
Si      -1.68375069      -0.47680830      -1.64540453       0.00000000
Si      -0.09725130      -1.75620861       1.67519060       0.00000000
Si      -0.88554069      -2.80332981      -1.53877454       0.00000000
Si      -3.46243950      -0.19047897      -0.14127698       0.00000000
Si       3.03314913      -0.15369615       1.81584704       0.00000000
Si       1.29078702      -0.76142718       3.26367754       0.00000000
Si      -1.83866859       1.88388963       2.57597788       0.00000000
Si       0.58334490      -3.65444973       0.33292138       0.00000000
