10
Lattice="16.28999089631971 0.0 0.0 0.0 16.28999089631971 0.0 0.0 0.0 34.474598006748145" Properties=species:S:1:pos:R:3:initial_magmoms:R:1 pbc="T T T"
Si       2.19831921      -0.51877134       0.54442316       0.00000000
Si      -1.17076230      -1.88281449      -0.79443308       0.00000000
Si      -0.72545886       1.34633592       1.83904846       0.00000000
Si       0.22403637       1.34754138      -1.98211812       0.00000000
Si      -1.49962482      -1.28487375       2.86694365       0.00000000
Si      -3.19388256      -0.79460991      -1.42118162       0.00000000
Si       2.29990365       0.04259835       2.85584282       0.00000000
Si      -3.32298081       1.43842329      -0.64377900       0.00000000
Si      -0.13084128       3.54577914       1.03296296       0.00000000
Si      -3.04256475       1.34697123       1.70780359       0.00000000
