10
Lattice="16.28999089631971 0.0 0.0 0.0 16.28999089631971 0.0 0.0 0.0 34.474598006748145" Properties=species:S:1:pos:R:3:initial_magmoms:R:1 pbc="T T T"
Si      -1.35666378       1.35099486       1.36085104       0.00000000
Si       1.35606105       1.35591444      -1.35712778       0.00000000
Si      -1.35886293      -1.35938421      -1.35616249       0.00000000
Si       1.35107631      -1.36001952       1.36388481       0.00000000
Si      -2.69579952      -0.01770723       2.72670090       0.00000000
Si       2.71396287       2.71287144       0.00234427       0.00000000
Si      -0.00154755       2.71332756      -2.71449689       0.00000000
Si       2.71384884      -0.00172674      -2.71449689       0.00000000
Si      -2.71564074       2.71498914       0.00158583       0.00000000
Si      -0.00177561      -2.71650411      -2.71432452       0.00000000
