10
Lattice="16.28999089631971 0.0 0.0 0.0 16.28999089631971 0.0 0.0 0.0 34.474598006748145" Properties=species:S:1:pos:R:3:initial_magmoms:R:1 pbc="T T T"
Si       0.26946918       0.21247047      -2.33293183       0.00000000
Si      -2.33419410      -0.49917447       0.00834286       0.00000000
Si       1.04107761      -1.75549185       1.27856013       0.00000000
Si       0.41554161       2.10108420       1.37009024       0.00000000
Si       2.64596841       0.96861969      -2.13439250       0.00000000
Si      -2.31809958      -2.14767360       1.62933936       0.00000000
Si      -3.13183395       1.60775784       0.68921655       0.00000000
Si       1.65838716       0.94664448       3.04338474       0.00000000
Si       3.02075244      -0.60777990       1.87479864       0.00000000
Si      -1.47448935       1.91304873      -2.85339512       0.00000000
