10
Lattice="16.28999089631971 0.0 0.0 0.0 16.28999089631971 0.0 0.0 0.0 34.474598006748145" Properties=species:S:1:pos:R:3:initial_magmoms:R:1 pbc="T T T"
Si      -2.00388177       0.99637526      -0.71155610       0.00000000
Si       0.71128656      -0.71118882      -2.15483595       0.00000000
Si       2.01919437       1.14509808       0.65198396       0.00000000
Si      -1.18783422      -1.61023392       1.37426167       0.00000000
Si      -2.93071761      -0.66901401      -2.11584516       0.00000000
Si       1.74040731       3.25113281      -0.36401748       0.00000000
Si       0.59437323       2.91836069      -2.47317457       0.00000000
Si      -3.52429263       1.41112355       0.99011101       0.00000000
Si      -1.10954448      -0.90798831      -3.66761663       0.00000000
Si      -1.99184346      -3.42590103       0.01413459       0.00000000
