10
Lattice="16.28999089631971 0.0 0.0 0.0 16.28999089631971 0.0 0.0 0.0 34.474598006748145" Properties=species:S:1:pos:R:3:initial_magmoms:R:1 pbc="T T T"
Si      -1.35681691      -1.35778779       1.35678304       0.00000000
Si       1.35733167      -1.35742941      -1.35730016       0.00000000
Si      -1.35805983       1.35790182      -1.35774833       0.00000000
Si       1.35935163       1.35793440       1.35723121       0.00000000
Si       2.71086777       0.00084708       2.71487611       0.00000000
Si       2.71404432      -2.71425609       0.00020685       0.00000000
Si       2.71388142       0.00016290      -2.71525533       0.00000000
Si       2.71464705       2.71528236       0.00020685       0.00000000
Si      -2.71557984      -0.00027693      -2.71446241       0.00000000
Si      -2.71507470      -2.71521720       0.00037922       0.00000000
