10
Lattice="16.28999089631971 0.0 0.0 0.0 16.28999089631971 0.0 0.0 0.0 34.474598006748145" Properties=species:S:1:pos:R:3:initial_magmoms:R:1 pbc="T T T"
Si       1.35720135      -1.35066137       1.35874809       0.00000000
Si      -1.35729909      -1.35588140      -1.35702436       0.00000000
Si       1.35753023       1.35875053      -1.35674856       0.00000000
Si      -1.35418770       1.35946729       1.36574644       0.00000000
Si       0.00011403      -2.71370779      -2.71466926       0.00000000
Si      -2.71487511      -2.71375666       0.00227532       0.00000000
Si       2.71497352       0.00163226      -2.71439347       0.00000000
Si       2.71493280      -2.71453858       0.00003447       0.00000000
Si      -2.71528236       0.00188312      -2.71446241       0.00000000
Si      -0.00009774       2.71692928      -2.71446241       0.00000000
