10
Lattice="16.28999089631971 0.0 0.0 0.0 16.28999089631971 0.0 0.0 0.0 34.474598006748145" Properties=species:S:1:pos:R:3:initial_magmoms:R:1 pbc="T T T"
Si       1.40581071      -0.86807292      -1.65681563       0.00000000
Si      -2.20359717      -0.66491382      -0.55193862       0.00000000
Si       0.07654671       2.39660109      -0.26869517       0.00000000
Si       0.07887618      -1.03402078       2.19765343       0.00000000
Si       0.08276949       2.54847276       2.08992025       0.00000000
Si      -3.25874934       1.18900710       0.44820450       0.00000000
Si      -2.11271526       1.52177922       2.55736158       0.00000000
Si       1.44692667       0.91364094      -3.26891768       0.00000000
Si      -2.19766761       2.91678966      -0.69469801       0.00000000
Si       0.24283503      -2.78123147      -2.54591601       0.00000000
