10
Lattice="16.28999089631971 0.0 0.0 0.0 16.28999089631971 0.0 0.0 0.0 34.474598006748145" Properties=species:S:1:pos:R:3:initial_magmoms:R:1 pbc="T T T"
Si      -1.35136368      -1.35785295      -1.37722649       0.00000000
Si       1.36314394       1.35920502      -1.37874337       0.00000000
Si       1.39253110      -1.34112312       1.43238587       0.00000000
Si      -1.45329021       1.35299853       1.40273770       0.00000000
Si       2.70187243      -2.69029350      -0.03819788       0.00000000
Si      -2.71876257      -2.71881729       0.02537332       0.00000000
Si      -2.71439685       2.72564280      -0.02792444       0.00000000
Si       2.73111298       2.71093293      -0.00082739       0.00000000
Si      -2.71065015       0.00316026      -2.74235238       0.00000000
Si       0.00624559      -2.71422351      -2.74211106       0.00000000
