10
Lattice="16.28999089631971 0.0 0.0 0.0 16.28999089631971 0.0 0.0 0.0 34.474598006748145" Properties=species:S:1:pos:R:3:initial_magmoms:R:1 pbc="T T T"
Si       1.34741106       1.29306762       1.40095678       0.00000000
Si      -1.26438093      -1.46243638       1.34483900       0.00000000
Si      -1.65133359       0.68418000      -1.68487797       0.00000000
Si       1.97583039      -0.25524801      -1.54246333       0.00000000
Si       0.45670644       0.91917954      -2.97388391       0.00000000
Si      -2.26023750      -3.01284269      -0.17406234       0.00000000
Si       0.01172880       2.64026691       2.73509000       0.00000000
Si      -2.67664248      -0.08705376       2.72236542       0.00000000
Si      -2.74023864      -1.53707716      -2.19113772       0.00000000
Si       2.46883095       2.94625827       0.14625585       0.00000000
