10
Lattice="16.28999089631971 0.0 0.0 0.0 16.28999089631971 0.0 0.0 0.0 34.474598006748145" Properties=species:S:1:pos:R:3:initial_magmoms:R:1 pbc="T T T"
Si       1.73825118       1.16177022       1.03792454       0.00000000
Si       0.88778286      -1.10091078      -1.88739639       0.00000000
Si      -1.12141989      -1.65319065       1.25470094       0.00000000
Si      -1.90174347       1.64268360      -0.29191110       0.00000000
Si      -0.72573579      -0.08715150      -3.40931284       0.00000000
Si       0.29851425       2.40336144       2.57621299       0.00000000
Si      -2.45710215      -0.30599136       2.58883415       0.00000000
Si      -0.49300056      -3.20150628      -1.68871917       0.00000000
Si      -1.77497469       1.92520107      -2.70351401       0.00000000
Si      -2.46883095      -2.94625827      -0.14625585       0.00000000
