10
Lattice="16.28999089631971 0.0 0.0 0.0 16.28999089631971 0.0 0.0 0.0 34.474598006748145" Properties=species:S:1:pos:R:3:initial_magmoms:R:1 pbc="T T T"
Si      -1.35563751      -1.35529542       1.38619333       0.00000000
Si       1.36234899       1.35643572       1.38850313       0.00000000
Si      -1.27765728       1.49970627      -1.44886819       0.00000000
Si       1.23369057      -1.56693510      -1.42430502       0.00000000
Si       2.56218894      -0.15775236      -2.73450393       0.00000000
Si       2.71868697       2.68910433       0.02994465       0.00000000
Si      -2.69979057      -2.72389977      -0.00595721       0.00000000
Si       2.73090447      -2.71292031       0.01089053       0.00000000
Si      -2.72155401       2.72337849       0.00411972       0.00000000
Si       0.00329058      -2.71267596       2.74694095       0.00000000
