10
Lattice="16.28999089631971 0.0 0.0 0.0 16.28999089631971 0.0 0.0 0.0 34.474598006748145" Properties=species:S:1:pos:R:3:initial_magmoms:R:1 pbc="T T T"
Si       1.35993076       1.34855136      -1.35564538       0.00000000
Si       1.26110664      -1.37264427       1.43066214       0.00000000
Si      -1.35312885      -1.36658439      -1.35892046       0.00000000
Si      -1.18094355       1.48139631       1.41342483       0.00000000
Si       2.36348093       0.47008053       2.55743053       0.00000000
Si      -2.29229622      -0.11261277       2.66406052       0.00000000
Si      -0.74342673      -2.14446447       2.72128839       0.00000000
Si       0.71198703       2.28128418       2.71932334       0.00000000
Si      -2.69612532       2.71992501       0.02227060       0.00000000
Si      -2.70754461      -0.00969255      -2.71318685       0.00000000
