10
Lattice="16.28999089631971 0.0 0.0 0.0 16.28999089631971 0.0 0.0 0.0 34.474598006748145" Properties=species:S:1:pos:R:3:initial_magmoms:R:1 pbc="T T T"
Si      -1.74236211      -0.60773103       1.44783050       0.00000000
Si       2.01047922      -1.20142008       0.22101677       0.00000000
Si       0.31957722       2.28403719       0.53811430       0.00000000
Si      -0.75352653       0.11541465      -2.39146973       0.00000000
Si       2.55282219      -0.69002811      -2.06175449       0.00000000
Si      -2.41828308       1.65806136       1.70280477       0.00000000
Si      -3.13040043      -1.60251246      -0.14065644       0.00000000
Si      -3.03314913       0.15369615      -1.81584704       0.00000000
Si       0.64835829      -1.58677632      -3.18390328       0.00000000
Si       0.60608574       2.17569240       2.88807659       0.00000000
