10
Lattice="16.28999089631971 0.0 0.0 0.0 16.28999089631971 0.0 0.0 0.0 34.474598006748145" Properties=species:S:1:pos:R:3:initial_magmoms:R:1 pbc="T T T"
Si      -2.16057528       0.08198757       0.93639955       0.00000000
Si      -0.28650852       0.10834479      -2.34996229       0.00000000
Si       1.02255588       2.08528290       0.58141442       0.00000000
Si       1.00809036      -1.98961173       0.97183946       0.00000000
Si      -3.02436882      -0.51763104      -1.18527182       0.00000000
Si       2.63217078      -0.75031740       2.27466972       0.00000000
Si       2.53596204      -2.47889817      -0.80743001       0.00000000
Si      -0.60608574      -2.17569240      -2.88807659       0.00000000
Si       2.03913333       1.52466255       2.68153916       0.00000000
Si      -2.38228218       2.32212321       1.62644349       0.00000000
