10
Lattice="16.28999089631971 0.0 0.0 0.0 16.28999089631971 0.0 0.0 0.0 34.474598006748145" Properties=species:S:1:pos:R:3:initial_magmoms:R:1 pbc="T T T"
Si       0.69495162      -0.91742022       2.04038022       0.00000000
Si      -0.59303745       2.27497995       0.40686943       0.00000000
Si      -1.62408042      -1.23929433      -1.30283026       0.00000000
Si       2.08118501       0.77111973      -0.99055918       0.00000000
Si       1.79157324       2.61244359       0.44806660       0.00000000
Si      -2.81846322      -1.03400775       1.18827111       0.00000000
Si      -0.09620874      -1.72858077      -3.08209973       0.00000000
Si      -2.63217078       0.75031740      -2.27466972       0.00000000
Si      -0.04730616      -3.11736843       1.84239250       0.00000000
Si      -1.60961490       2.83560030      -1.69325530       0.00000000
