10
Lattice="16.28999089631971 0.0 0.0 0.0 16.28999089631971 0.0 0.0 0.0 34.474598006748145" Properties=species:S:1:pos:R:3:initial_magmoms:R:1 pbc="T T T"
Si      -1.35110889       1.35101115       1.35519720       0.00000000
Si      -1.35571896      -1.35798327      -1.35633487       0.00000000
Si       1.35792739       1.35645201      -1.35599012       0.00000000
Si       1.35579310      -1.35746199       1.35971338       0.00000000
Si      -0.00413766      -2.70601335       2.71535875       0.00000000
Si      -2.71427238      -0.00042354      -2.71304896       0.00000000
Si       0.00083079       2.71422351      -2.71315238       0.00000000
Si      -2.71168227      -2.71570590       0.00217190       0.00000000
Si       0.00086337      -2.71533123      -2.71280763       0.00000000
Si      -2.71415835       2.71417464       0.00379221       0.00000000
