10
Lattice="16.28999089631971 0.0 0.0 0.0 16.28999089631971 0.0 0.0 0.0 34.474598006748145" Properties=species:S:1:pos:R:3:initial_magmoms:R:1 pbc="T T T"
Si       1.89133416       0.65655216       1.47920037       0.00000000
Si       1.93481217       0.50023332      -1.51347017       0.00000000
Si      -0.83799018      -1.97157870       1.30218356       0.00000000
Si      -1.85701113       1.74332322      -0.13458891       0.00000000
Si       1.38670254      -1.36691019      -2.81988579       0.00000000
Si       0.45688563       1.96315677       2.78602280       0.00000000
Si      -2.28188691      -0.74790648       2.75517146       0.00000000
Si      -0.86115456       3.29372953       1.38431244       0.00000000
Si      -2.58828552      -1.85064174      -2.04275897       0.00000000
Si      -3.59446995       0.74953548       1.26234469       0.00000000
