10
Lattice="16.28999089631971 0.0 0.0 0.0 16.28999089631971 0.0 0.0 0.0 34.474598006748145" Properties=species:S:1:pos:R:3:initial_magmoms:R:1 pbc="T T T"
Si      -0.78830568      -2.10507525      -0.72593202       0.00000000
Si       0.19145637       0.81743220      -2.23254174       0.00000000
Si       2.21495130      -0.22100643       0.91923119       0.00000000
Si      -1.76003676      -0.70473798       1.69635802       0.00000000
Si      -0.85991652      -3.06528930       1.58724585       0.00000000
Si       2.45571750       0.35513829      -2.76658804       0.00000000
Si       0.04955418       3.12485598      -2.10784705       0.00000000
Si       3.56487102      -0.73676412      -0.99104182       0.00000000
Si       2.13110667      -2.21281731       2.22754292       0.00000000
Si      -1.60076943      -0.05315427      -3.47059420       0.00000000
