10
Lattice="16.28999089631971 0.0 0.0 0.0 16.28999089631971 0.0 0.0 0.0 34.474598006748145" Properties=species:S:1:pos:R:3:initial_magmoms:R:1 pbc="T T T"
Si      -2.29337788       0.16224840      -0.39749234       0.00000000
Si       0.56347110      -1.22056083       1.99911411       0.00000000
Si       0.75642615      -0.80014851      -2.16597125       0.00000000
Si       0.81713898       2.30969394       0.32592303       0.00000000
Si       2.89248498      -1.38724011      -1.45851763       0.00000000
Si      -2.12147765       0.80726724      -2.72552877       0.00000000
Si       0.23574888       1.08870957      -3.44435901       0.00000000
Si      -0.31630293       0.19264554       3.64127803       0.00000000
Si       3.70012689      -0.28258263       0.48933272       0.00000000
Si       3.17483955       1.99677933       0.47657711       0.00000000
