10
Lattice="16.28999089631971 0.0 0.0 0.0 16.28999089631971 0.0 0.0 0.0 34.474598006748145" Properties=species:S:1:pos:R:3:initial_magmoms:R:1 pbc="T T T"
Si      -0.88778286       1.10091078       1.88739639       0.00000000
Si      -1.61351865       1.01375928      -1.52191645       0.00000000
Si       2.23894321       0.40536036      -0.95898043       0.00000000
Si      -1.38078342      -2.10059550       0.19867722       0.00000000
Si       2.07820978      -1.59712047       1.75713677       0.00000000
Si      -2.89990737      -0.92616795      -1.23274336       0.00000000
Si       2.83821973      -1.88213031      -0.40342197       0.00000000
Si       0.97460627      -3.42315454      -0.87213887       0.00000000
Si      -0.24396718       1.11117348      -3.51782442       0.00000000
Si      -2.00920275      -0.55227987       3.14209733       0.00000000
