10
Lattice="16.28999089631971 0.0 0.0 0.0 16.28999089631971 0.0 0.0 0.0 34.474598006748145" Properties=species:S:1:pos:R:3:initial_magmoms:R:1 pbc="T T T"
Si      -1.35842803      -1.35565380       1.35643829       0.00000000
Si      -1.35717370       1.35751086      -1.35730016       0.00000000
Si       1.35722479      -1.35734796      -1.35785175       0.00000000
Si       1.35872184       1.36041048       1.35761043       0.00000000
Si      -2.71530358       0.00024435       2.71194577       0.00000000
Si      -2.71375603       2.71485882      -0.00082739       0.00000000
Si      -2.71388635       0.00141723      -2.71525533       0.00000000
Si       0.00036499       2.71534752      -2.71411767       0.00000000
Si      -2.71505923      -2.71459818       0.00031027       0.00000000
Si      -0.00029522      -2.71552671      -2.71456584       0.00000000
