10
Lattice="16.28999089631971 0.0 0.0 0.0 16.28999089631971 0.0 0.0 0.0 34.474598006748145" Properties=species:S:1:pos:R:3:initial_magmoms:R:1 pbc="T T T"
Si      -1.35664423       1.36001952      -1.36243687       0.00000000
Si       1.35927018      -1.35770634      -1.36291952       0.00000000
Si       1.36796904       1.35172791       1.37791598       0.00000000
Si      -1.36314394      -1.35920502       1.37874337       0.00000000
Si       2.71078632      -2.71479366      -0.00527462       0.00000000
Si       2.71611315       2.71244790      -0.00382668       0.00000000
Si      -2.71450763      -2.71705797       0.00151688       0.00000000
Si      -2.71761004       2.71498914      -0.00482645       0.00000000
Si       2.71456560      -0.00035838      -2.71994388       0.00000000
Si       0.00009774       2.71458189      -2.72011625       0.00000000
