10
Lattice="16.28999089631971 0.0 0.0 0.0 16.28999089631971 0.0 0.0 0.0 34.474598006748145" Properties=species:S:1:pos:R:3:initial_magmoms:R:1 pbc="T T T"
Si       2.21304537       0.73546092      -0.31768360       0.00000000
Si      -0.79167771       1.24134687       1.85373465       0.00000000
Si      -1.32155068       0.77410080      -1.86580076       0.00000000
Si      -0.08363286      -2.45584782       0.05681417       0.00000000
Si      -0.84678678       3.39143139       0.70407511       0.00000000
Si       2.57320098      -0.21784617      -2.52605863       0.00000000
Si      -1.03193892      -1.06722306      -3.30442654       0.00000000
Si      -3.09510719       0.50859009       1.84249592       0.00000000
Si      -2.41817231      -2.75576301      -0.27348714       0.00000000
Si       1.12606254      -2.02831677      -3.14036184       0.00000000
