10
Lattice="16.28999089631971 0.0 0.0 0.0 16.28999089631971 0.0 0.0 0.0 34.474598006748145" Properties=species:S:1:pos:R:3:initial_magmoms:R:1 pbc="T T T"
Si       0.57598182      -1.12221810       2.00862910       0.00000000
Si      -2.33453945      -0.29991519      -0.33030131       0.00000000
Si       1.25323857      -1.30179906      -1.60982673       0.00000000
Si       0.08363286       2.45584782      -0.05681417       0.00000000
Si       1.20969540       0.42753105      -3.19717601       0.00000000
Si      -0.94830606       1.38862476      -3.36124071       0.00000000
Si       0.11979666      -3.41884746       1.70552827       0.00000000
Si      -3.46335893       0.66064095       1.49171669       0.00000000
Si      -3.02949107       0.61750503      -2.37068153       0.00000000
Si       2.97123084      -0.98753238       2.34889357       0.00000000
