10
Lattice="16.28999089631971 0.0 0.0 0.0 16.28999089631971 0.0 0.0 0.0 34.474598006748145" Properties=species:S:1:pos:R:3:initial_magmoms:R:1 pbc="T T T"
Si      -1.21099601      -0.90828153      -1.77671835       0.00000000
Si       2.31960803       0.48193965      -0.22670508       0.00000000
Si       0.17552638      -2.00777508       1.27021727       0.00000000
Si      -1.52141825       1.62032673       0.91474949       0.00000000
Si       2.18607890       1.09595862       2.01866121       0.00000000
Si      -2.20908431      -2.34523872       1.22902011       0.00000000
Si       0.12357105      -2.77237881      -2.19413702       0.00000000
Si      -0.29813144       3.57056342       0.27100497       0.00000000
Si      -1.09389842       0.67940703      -3.49865653       0.00000000
Si      -1.63289072       0.95750991       3.21717128       0.00000000
