10
Lattice="10.86 0.0 0.0 0.0 10.86 0.0 0.0 0.0 10.86" Properties=species:S:1:pos:R:3:initial_magmoms:R:1 pbc="T T T"
Si       1.33438992       1.21295340      -1.17605112       0.00000000
Si      -1.42196496      -1.35163560      -1.37052114       0.00000000
Si      -1.46686020       1.30865172       1.38804918       0.00000000
Si      -0.05515794       2.57107242      -2.57829432       0.00000000
Si       2.65984206       2.57107242       0.13670568       0.00000000
Si       2.65984206      -0.14392758      -2.57829432       0.00000000
Si      -2.77015794       2.57107242       0.13670568       0.00000000
Si      -2.77015794      -0.14392758      -2.57829432       0.00000000
Si      -0.05515794       2.57107242       2.85170568       0.00000000
Si      -0.05515794      -2.85892758      -2.57829432       0.00000000
