10
Lattice="16.28999089631971 0.0 0.0 0.0 16.28999089631971 0.0 0.0 0.0 34.32429715621058" Properties=species:S:1:pos:R:3:initial_magmoms:R:1 pbc="T T T"
Si      -0.56936808      -0.92960514       2.05135844       0.00000000
Si      -0.46788138       2.29685742      -0.05279080       0.00000000
Si      -1.19667969      -0.69538752      -1.89810037       0.00000000
Si       2.24352396      -0.56633814      -0.58643094       0.00000000
Si      -0.16514802       0.81924039      -3.38218083       0.00000000
Si       2.00780766      -0.00159642      -2.89676635       0.00000000
Si       0.49313088      -2.99332008       1.87692227       0.00000000
Si       1.09125081       3.25434682       1.35131401       0.00000000
Si       0.89026479       0.16399143       3.58479727       0.00000000
Si      -2.64653041       2.48117877       0.79289171       0.00000000
