10
Lattice="16.28999089631971 0.0 0.0 0.0 16.28999089631971 0.0 0.0 0.0 34.32429715621058" Properties=species:S:1:pos:R:3:initial_magmoms:R:1 pbc="T T T"
Si       2.29764097      -0.01767465      -0.52588285       0.00000000
Si       0.07632354      -0.72097911       2.26876866       0.00000000
Si      -0.32247521       2.36322288       0.22396616       0.00000000
Si      -1.59585541      -1.40167305      -1.29581159       0.00000000
Si      -2.17765276      -0.78556896       2.82310637       0.00000000
Si      -2.54509000       2.73279411       0.76992874       0.00000000
Si       0.22047863       3.39310926      -1.78434958       0.00000000
Si       0.88221916      -2.90248704       2.49651050       0.00000000
Si      -3.36117013      -1.75352076       1.05856192       0.00000000
Si       2.86700905       0.91193049      -2.57724129       0.00000000
