10
Lattice="16.28999089631971 0.0 0.0 0.0 16.28999089631971 0.0 0.0 0.0 34.32429715621058" Properties=species:S:1:pos:R:3:initial_magmoms:R:1 pbc="T T T"
Si       2.22082710       0.84323556       0.37526775       0.00000000
Si      -1.46650303       1.82602755       0.80792576       0.00000000
Si      -1.40013757       0.00871515      -2.07620925       0.00000000
Si       0.23876416      -2.60817137      -0.00171622       0.00000000
Si      -0.36598987      -1.23886916       2.36031161       0.00000000
Si      -3.17898928       0.17096355       0.88772979       0.00000000
Si       1.76195409       2.91809286      -0.69815659       0.00000000
Si       0.38703085       0.63765576       3.56382512       0.00000000
Si       3.49537299      -0.79430040      -0.73368226       0.00000000
Si      -3.50092855      -0.69792876      -1.25472538       0.00000000
