10
Lattice="16.28999089631971 0.0 0.0 0.0 16.28999089631971 0.0 0.0 0.0 34.32429715621058" Properties=species:S:1:pos:R:3:initial_magmoms:R:1 pbc="T T T"
Si      -1.35685926       1.35654323       1.35673725       0.00000000
Si      -1.35599589      -1.35672456      -1.35821320       0.00000000
Si       1.35801585      -1.35778885       1.35649698       0.00000000
Si       1.35747828       1.35750434      -1.35735509       0.00000000
Si      -0.00053757      -2.71355303       2.71405802       0.00000000
Si       2.71427238      -0.00084382       2.71402369       0.00000000
Si      -2.71371852      -0.00318795       2.71467585       0.00000000
Si       0.00008145       2.71283234      -2.71560261       0.00000000
Si      -2.71479366       2.71374458       0.00020595       0.00000000
Si      -2.71342530       0.00001303      -2.71563694       0.00000000
