10
Lattice="16.28999089631971 0.0 0.0 0.0 16.28999089631971 0.0 0.0 0.0 34.32429715621058" Properties=species:S:1:pos:R:3:initial_magmoms:R:1 pbc="T T T"
Si       0.25019811       0.00370109      -2.30803568       0.00000000
Si      -0.65971242       1.98764553       1.01795625       0.00000000
Si      -1.90752642      -1.51412522      -0.29745453       0.00000000
Si       2.09666961      -0.93157853       0.90115060       0.00000000
Si       1.43788572      -3.00843950      -0.25746670       0.00000000
Si      -0.73533060      -3.21157580       0.73543280       0.00000000
Si       1.78106715      -1.90392863      -2.34661621       0.00000000
Si      -0.38587752       1.17001785       3.35506462       0.00000000
Si      -2.82950295       2.76759444      -0.00490838       0.00000000
Si       3.05825202       1.80428529       1.78424661       0.00000000
