10
Lattice="16.28999089631971 0.0 0.0 0.0 16.28999089631971 0.0 0.0 0.0 34.32429715621058" Properties=species:S:1:pos:R:3:initial_magmoms:R:1 pbc="T T T"
Si       0.70586199      -2.26970103      -0.01829486       0.00000000
Si       0.40197204       0.76681265      -2.21707624       0.00000000
Si      -2.23923969       0.09508962       0.80545441       0.00000000
Si       1.38539934      -0.15976206       1.95071955       0.00000000
Si      -0.32057091       0.20218496       3.60312646       0.00000000
Si      -3.37048245      -1.51777092      -0.56391419       0.00000000
Si      -0.68230665      -0.76101897      -3.60288619       0.00000000
Si       2.76219756       1.75888831       1.86291794       0.00000000
Si      -0.16027731       3.84461104       0.43729179       0.00000000
Si       2.71399545       1.14940122      -2.65556938       0.00000000
