10
Lattice="16.28999089631971 0.0 0.0 0.0 16.28999089631971 0.0 0.0 0.0 34.32429715621058" Properties=species:S:1:pos:R:3:initial_magmoms:R:1 pbc="T T T"
Si       1.35793440      -1.35720135       1.35653131       0.00000000
Si       1.35782037       1.35659862      -1.35817887       0.00000000
Si      -1.35801585       1.35876519       1.35666860       0.00000000
Si      -1.35839052      -1.35755973      -1.35759536       0.00000000
Si      -0.00177561       2.71474479       2.71374910       0.00000000
Si       2.71479366      -2.71374458      -0.00020595       0.00000000
Si      -2.71483927      -0.00252495      -2.71409234       0.00000000
Si      -2.71478714      -2.71429844       0.00000000       0.00000000
Si       0.00136836      -2.71373155      -2.71584288       0.00000000
Si      -2.71655135       0.00167787       2.71374910       0.00000000
