10
Lattice="16.28999089631971 0.0 0.0 0.0 16.28999089631971 0.0 0.0 0.0 34.32429715621058" Properties=species:S:1:pos:R:3:initial_magmoms:R:1 pbc="T T T"
Si       1.35705474      -1.35751086      -1.35762968       0.00000000
Si      -1.35782037      -1.35659862       1.35817887       0.00000000
Si       1.35765747       1.35909099       1.35783563       0.00000000
Si      -1.35904212       1.36026387      -1.35927725       0.00000000
Si      -0.00605988      -2.71373481      -2.69316824       0.00000000
Si       2.70682785       0.02987586      -2.71983823       0.00000000
Si       2.71445157      -2.71283886       0.00061784       0.00000000
Si       0.00011403      -2.71379997       2.71471018       0.00000000
Si       2.71482624       0.00143352       2.71460721       0.00000000
Si      -2.71621089      -2.71415835       0.00058351       0.00000000
