10
Lattice="16.28999089631971 0.0 0.0 0.0 16.28999089631971 0.0 0.0 0.0 34.32429715621058" Properties=species:S:1:pos:R:3:initial_magmoms:R:1 pbc="T T T"
Si       1.27454589      -1.63753596      -1.10895001       0.00000000
Si      -0.45887301       2.07485730      -1.07342434       0.00000000
Si      -2.22082710      -0.84323556      -0.37526775       0.00000000
Si       0.38835360       0.23392440       2.40730160       0.00000000
Si       1.00071099      -0.81990828      -3.44605839       0.00000000
Si      -1.83379625      -0.20557980       3.18855737       0.00000000
Si       0.39745971      -3.67183835      -0.31818641       0.00000000
Si      -0.86121972       3.66686271       0.62631580       0.00000000
Si       3.54340080      -1.29886686      -0.61763175       0.00000000
Si      -3.68733014       0.98279199       0.43265801       0.00000000
