10
Lattice="16.28999089631971 0.0 0.0 0.0 16.28999089631971 0.0 0.0 0.0 34.32429715621058" Properties=species:S:1:pos:R:3:initial_magmoms:R:1 pbc="T T T"
Si      -2.20516101       0.09620874       0.77384171       0.00000000
Si       1.83358611       0.58235121       1.41405886       0.00000000
Si      -0.24814557      -2.39449968      -0.40231531       0.00000000
Si      -0.56358513       1.08695025      -2.13885112       0.00000000
Si      -2.62757700      -1.95434388      -0.29477723       0.00000000
Si       0.54089316       2.21724819       2.57250454       0.00000000
Si      -1.64504565      -0.93830400       2.91173175       0.00000000
Si      -0.88534521      -0.86247405      -3.35928652       0.00000000
Si       0.69574590      -2.49458544      -2.50594969       0.00000000
Si      -2.81246850       2.26999521       0.08103971       0.00000000
