10
Lattice="16.28999089631971 0.0 0.0 0.0 16.28999089631971 0.0 0.0 0.0 34.32429715621058" Properties=species:S:1:pos:R:3:initial_magmoms:R:1 pbc="T T T"
Si      -2.18056311      -0.87827535      -0.31870128       0.00000000
Si      -0.22266801       2.04446016       1.24315809       0.00000000
Si       1.47712833      -1.29354003       1.41066075       0.00000000
Si       0.49998897       0.50450130      -2.36024296       0.00000000
Si      -2.88536625      -0.87526170       1.93918658       0.00000000
Si       0.66181383      -0.81507015       3.58479727       0.00000000
Si      -0.35350929       2.73880512      -2.58609697       0.00000000
Si      -2.39562369       2.86529697       0.75774361       0.00000000
Si       0.01304829       1.47971844       3.55349350       0.00000000
Si       2.86954866       0.66093417      -2.51638428       0.00000000
