10
Lattice="16.28999089631971 0.0 0.0 0.0 16.28999089631971 0.0 0.0 0.0 34.32429715621058" Properties=species:S:1:pos:R:3:initial_magmoms:R:1 pbc="T T T"
Si      -0.51724008      -2.27998098      -0.25321048       0.00000000
Si       2.17810332       0.90272664      -0.15514591       0.00000000
Si      -0.22105530       0.77053329       2.27690352       0.00000000
Si      -1.36907676       0.84253509      -1.80075661       0.00000000
Si       1.52933778       3.19751523      -0.18644969       0.00000000
Si       3.23864748       0.07027506       1.84609903       0.00000000
Si      -2.79674865      -2.35053297      -0.97824302       0.00000000
Si       0.92325204      -3.17892834      -1.85969146       0.00000000
Si       2.99341782       0.42425676      -2.32928243       0.00000000
Si      -0.71418618       3.76385337       0.39998126       0.00000000
