10
Lattice="16.28999089631971 0.0 0.0 0.0 16.28999089631971 0.0 0.0 0.0 34.32429715621058" Properties=species:S:1:pos:R:3:initial_magmoms:R:1 pbc="T T T"
Si       1.35648459       1.35799956      -1.35718347       0.00000000
Si       1.35716877      -1.35744570       1.35721779       0.00000000
Si      -1.35817875      -1.35703845      -1.35721779       0.00000000
Si      -1.35808101       1.35793440       1.35697752       0.00000000
Si       2.71438641      -2.71438641       0.00010297       0.00000000
Si       2.71459818      -0.00162900       2.71453856       0.00000000
Si      -2.71552671      -2.71404432      -0.00013730       0.00000000
Si       2.71487511       2.71490769      -0.00010297       0.00000000
Si      -2.71508688       0.00130320       2.71488180       0.00000000
Si       0.00032580      -2.71217097      -2.71779937       0.00000000
