10
Lattice="16.28999089631971 0.0 0.0 0.0 16.28999089631971 0.0 0.0 0.0 34.32429715621058" Properties=species:S:1:pos:R:3:initial_magmoms:R:1 pbc="T T T"
Si      -1.34529336      -1.35886293       1.37729408       0.00000000
Si       1.37228589       1.35483930       1.38371273       0.00000000
Si       1.28700774      -1.41960834      -1.43964421       0.00000000
Si      -1.42122105       1.36790388      -1.38077114       0.00000000
Si       2.70246213      -2.71037288       0.02863678       0.00000000
Si       2.71568961       2.69948106       0.01403521       0.00000000
Si      -2.71507059      -2.72063017      -0.00757538       0.00000000
Si      -2.70361872      -0.00298107       2.73962620       0.00000000
Si       0.01200573       2.71168227       2.73917998       0.00000000
Si      -2.71124244       2.73973365       0.01917013       0.00000000
