10
Lattice="16.28999089631971 0.0 0.0 0.0 16.28999089631971 0.0 0.0 0.0 34.32429715621058" Properties=species:S:1:pos:R:3:initial_magmoms:R:1 pbc="T T T"
Si       1.35617508      -1.35473179      -1.35659995       0.00000000
Si      -1.35653346       1.36044306      -1.35536428       0.00000000
Si      -1.36415718      -1.34885272       1.35986076       0.00000000
Si       1.37085237       1.36168110       1.35011266       0.00000000
Si      -0.05610276       2.62062117       2.68591208       0.00000000
Si       2.61979038      -0.05657517       2.74670044       0.00000000
Si      -0.00008145      -2.71167682      -2.71412667       0.00000000
Si      -2.71391400      -2.71190123      -0.00085811       0.00000000
Si       2.71459818       0.00291591      -2.71381775       0.00000000
Si      -2.71495656       0.00265527      -2.71388640       0.00000000
