10
Lattice="16.28999089631971 0.0 0.0 0.0 16.28999089631971 0.0 0.0 0.0 34.32429715621058" Properties=species:S:1:pos:R:3:initial_magmoms:R:1 pbc="T T T"
Si      -0.74174886      -1.82662118      -1.30511348       0.00000000
Si      -0.33759396      -1.01475460       2.17293517       0.00000000
Si       1.94597082       0.88966206      -1.26862673       0.00000000
Si      -1.59339006       1.92810069       0.15425348       0.00000000
Si      -2.03797674      -0.40261549      -2.65546641       0.00000000
Si       0.69703281       2.30791833      -2.66521452       0.00000000
Si      -3.35565855       0.94758930      -1.16112297       0.00000000
Si      -0.72992232       3.56685840      -1.32941510       0.00000000
Si      -2.65694787      -2.86848071      -0.09947187       0.00000000
Si       3.73588344       1.66811229       0.04771080       0.00000000
