10
Lattice="16.28999089631971 0.0 0.0 0.0 16.28999089631971 0.0 0.0 0.0 34.32429715621058" Properties=species:S:1:pos:R:3:initial_magmoms:R:1 pbc="T T T"
Si      -1.35720135      -1.35658233       1.35718347       0.00000000
Si       1.35526284      -1.35863487      -1.35910563       0.00000000
Si       1.35716877       1.35860229       1.35738941       0.00000000
Si      -1.35689184       1.36081773      -1.36051293       0.00000000
Si      -0.00803097      -2.68579746      -2.72049039       0.00000000
Si       2.71360449       2.71432125      -0.00051486       0.00000000
Si      -0.00003258      -2.71423980       2.71395504       0.00000000
Si       2.71458189       0.00109143       2.71426396       0.00000000
Si       2.71521720      -2.71384884      -0.00048054       0.00000000
Si      -2.71528236       0.00084708       2.71446991       0.00000000
