10
Lattice="16.28999089631971 0.0 0.0 0.0 16.28999089631971 0.0 0.0 0.0 34.32429715621058" Properties=species:S:1:pos:R:3:initial_magmoms:R:1 pbc="T T T"
Si      -1.34355033      -1.35610992       1.34832779       0.00000000
Si       1.35822762      -1.35725022      -1.35756104       0.00000000
Si      -1.35739683       1.35736425      -1.35872806       0.00000000
Si       1.36350558       1.34975682       1.37966590       0.00000000
Si      -2.71174743       2.71679733       0.00096108       0.00000000
Si      -2.71464705       0.00009774      -2.71577423       0.00000000
Si       0.00019548      -2.71487511      -2.71560261       0.00000000
Si      -0.00003258       2.71542897      -2.71546531       0.00000000
Si       2.71601541      -0.00034209      -2.71539667       0.00000000
Si       2.71858923      -2.71303434       0.00089243       0.00000000
