10
Lattice="16.28999089631971 0.0 0.0 0.0 16.28999089631971 0.0 0.0 0.0 34.32429715621058" Properties=species:S:1:pos:R:3:initial_magmoms:R:1 pbc="T T T"
Si       0.37058121       2.25593694       0.59054986       0.00000000
Si      -0.19227087       0.27930834      -2.36480810       0.00000000
Si       1.79758521      -0.93123414       1.28771105       0.00000000
Si      -2.29405554      -0.72907524       0.11045565       0.00000000
Si      -0.88878240       2.56890042      -2.52438185       0.00000000
Si      -1.44243063       3.45119940      -0.32381560       0.00000000
Si       1.88152758      -0.21372480      -3.38046462       0.00000000
Si       2.64994317      -2.84818433       0.31763722       0.00000000
Si      -3.23794701      -0.62898948       2.21409003       0.00000000
Si      -3.87514665       0.90303615      -0.74288118       0.00000000
