10
Lattice="16.28999089631971 0.0 0.0 0.0 16.28999089631971 0.0 0.0 0.0 34.32429715621058" Properties=species:S:1:pos:R:3:initial_magmoms:R:1 pbc="T T T"
Si      -0.34842681      -0.86187132      -2.17756895       0.00000000
Si      -1.87522335      -0.76994685       1.26234538       0.00000000
Si       2.22490449      -0.55812798       0.67986173       0.00000000
Si      -0.73914246       2.37521232       0.07784755       0.00000000
Si      -0.43170129      -2.09883618       2.56134913       0.00000000
Si       1.43008281       0.36823545      -3.14753981       0.00000000
Si      -2.16143865       0.33339114      -3.09193442       0.00000000
Si      -2.03460471       2.45690667      -2.04421898       0.00000000
Si       1.05614586       3.62771784      -0.68844281       0.00000000
Si       2.77799886      -2.78148492      -0.29996020       0.00000000
