10
Lattice="16.28999089631971 0.0 0.0 0.0 16.28999089631971 0.0 0.0 0.0 34.32429715621058" Properties=species:S:1:pos:R:3:initial_magmoms:R:1 pbc="T T T"
Si       0.28665513       1.87268211      -1.42257129       0.00000000
Si       1.57040487      -0.29395305       1.77672959       0.00000000
Si      -2.34940896      -0.33282099       0.49516259       0.00000000
Si       1.12068684      -1.74895956      -1.27085781       0.00000000
Si       1.09085985      -2.52837090       2.44107673       0.00000000
Si      -2.52625320      -2.66225841       0.46856124       0.00000000
Si      -0.95698863       1.62165321      -3.43188244       0.00000000
Si       3.83460084      -0.03639186       1.04750949       0.00000000
Si      -0.39429945       3.95117208      -0.49931583       0.00000000
Si       2.41289109      -0.98152137      -3.09667117       0.00000000
