10
Lattice="16.28999089631971 0.0 0.0 0.0 16.28999089631971 0.0 0.0 0.0 34.32429715621058" Properties=species:S:1:pos:R:3:initial_magmoms:R:1 pbc="T T T"
Si       1.79528832       1.25250552      -0.76629036       0.00000000
Si      -1.29546225       0.08169435      -2.12206653       0.00000000
Si       0.73914246      -2.37521232      -0.07784755       0.00000000
Si      -0.07330500       1.32348105       2.47516078       0.00000000
Si       1.76194269       0.33135489      -2.99067768       0.00000000
Si      -1.13608089      -3.14515917       1.18449783       0.00000000
Si      -3.26708982       0.95819409      -1.15539081       0.00000000
Si      -2.42877384      -1.51026219       2.34294351       0.00000000
Si       0.97220349       3.67104924      -0.29062399       0.00000000
Si       0.39071565      -3.23708364      -2.25541650       0.00000000
