10
Lattice="16.28999089631971 0.0 0.0 0.0 16.28999089631971 0.0 0.0 0.0 34.32429715621058" Properties=species:S:1:pos:R:3:initial_magmoms:R:1 pbc="T T T"
Si       1.35624024       1.35597960       1.35708050       0.00000000
Si      -1.35733167       1.35695700      -1.35656563       0.00000000
Si      -1.35853550      -1.35708732       1.35708050       0.00000000
Si       1.35801585      -1.35876519      -1.35666860       0.00000000
Si      -2.71391615       2.71366965       0.00006865       0.00000000
Si      -0.00109143       2.71404432       2.71378342       0.00000000
Si      -2.71436102       0.00019548       2.71505342       0.00000000
Si      -2.71477312      -0.00066789      -2.71467585       0.00000000
Si       2.71541268       2.71435383       0.00027459       0.00000000
Si      -0.00032580       2.71565703      -2.71440126       0.00000000
