10
Lattice="16.28999089631971 0.0 0.0 0.0 16.28999089631971 0.0 0.0 0.0 34.32429715621058" Properties=species:S:1:pos:R:3:initial_magmoms:R:1 pbc="T T T"
Si      -1.35658448       1.35671265       1.35663428       0.00000000
Si       1.35733167      -1.35695700       1.35656563       0.00000000
Si      -1.35744145      -1.35762489      -1.35811022       0.00000000
Si       1.35700587       1.35870003      -1.35783563       0.00000000
Si       2.71357191      -0.00097740       2.71364613       0.00000000
Si      -0.00120383      -2.71404432       2.71364613       0.00000000
Si       0.00054246       2.71451673       2.71388640       0.00000000
Si      -2.71463795      -0.00226431       2.71409234       0.00000000
Si      -2.71517552       0.00117288      -2.71381775       0.00000000
Si      -2.71455650       2.71463076      -0.00051486       0.00000000
