10
Lattice="16.28999089631971 0.0 0.0 0.0 16.28999089631971 0.0 0.0 0.0 34.32429715621058" Properties=species:S:1:pos:R:3:initial_magmoms:R:1 pbc="T T T"
Si      -1.35582552       1.35728280       1.35797293       0.00000000
Si      -1.35622610      -1.35832536      -1.35708050       0.00000000
Si       1.35853550       1.35708732      -1.35708050       0.00000000
Si       1.35794906      -1.35821133       1.36202320       0.00000000
Si      -2.72291490       0.00211770       2.70046559       0.00000000
Si      -2.71343412       2.71178001       0.00044622       0.00000000
Si      -2.71325493      -0.00120546      -2.71385207       0.00000000
Si       0.00120383       2.71404432      -2.71364613       0.00000000
Si       2.71477574       2.71306692       0.00000000       0.00000000
Si       0.00832419       2.70774009       2.72119747       0.00000000
