10
Lattice="16.28999089631971 0.0 0.0 0.0 16.28999089631971 0.0 0.0 0.0 34.32429715621058" Properties=species:S:1:pos:R:3:initial_magmoms:R:1 pbc="T T T"
Si       0.50398558      -2.26120580       0.24497265       0.00000000
Si      -0.60347934       0.81445113       2.14297004       0.00000000
Si       1.84840579       1.60901217       0.12552402       0.00000000
Si      -1.49395590      -0.07653042      -2.00560413       0.00000000
Si       0.21781359       0.79107498      -3.38266138       0.00000000
Si       1.18003035       2.56640805      -2.03742277       0.00000000
Si      -0.92659149       3.10220244       1.62182395       0.00000000
Si      -0.17475912      -2.81970845       2.44076781       0.00000000
Si       2.77038233      -2.67270749      -0.16702212       0.00000000
Si      -2.70427032       0.10780722       2.96445390       0.00000000
