10
Lattice="16.28999089631971 0.0 0.0 0.0 16.28999089631971 0.0 0.0 0.0 34.32429715621058" Properties=species:S:1:pos:R:3:initial_magmoms:R:1 pbc="T T T"
Si       1.62926064      -0.48160570       1.61743043       0.00000000
Si       1.23683454      -0.55222611      -1.94371739       0.00000000
Si      -0.41806656       2.33021934      -0.10589052       0.00000000
Si      -1.88651232      -1.33026421       0.68933525       0.00000000
Si      -0.84465279       2.46099546      -2.40548241       0.00000000
Si       0.35034903      -0.30424019       3.59221133       0.00000000
Si       0.77511078       1.18493460      -3.41643650       0.00000000
Si      -1.47828492      -1.64297763       3.00818308       0.00000000
Si       1.98417087      -2.83067162       1.42281156       0.00000000
Si       0.63513081      -3.78171440      -0.23711238       0.00000000
