10
Lattice="16.28999089631971 0.0 0.0 0.0 16.28999089631971 0.0 0.0 0.0 34.32429715621058" Properties=species:S:1:pos:R:3:initial_magmoms:R:1 pbc="T T T"
Si       1.82083919       0.98709255      -1.23413079       0.00000000
Si      -0.96221676      -1.77533307      -1.34523861       0.00000000
Si       0.66837544      -0.95739588       2.16294679       0.00000000
Si      -1.89905466       1.65377709       0.05859161       0.00000000
Si      -1.18003035      -2.56640805       2.03742277       0.00000000
Si       0.48095573       2.25507357      -2.73008747       0.00000000
Si      -2.25028335      -0.45054882      -2.75081936       0.00000000
Si       0.22659064       0.96457977       3.50293378       0.00000000
Si      -2.67398625      -2.64293847       0.03181864       0.00000000
Si      -0.88359476       3.46014261      -1.22946269       0.00000000
