10
Lattice="16.28999089631971 0.0 0.0 0.0 16.28999089631971 0.0 0.0 0.0 34.32429715621058" Properties=species:S:1:pos:R:3:initial_magmoms:R:1 pbc="T T T"
Si       1.35508365      -1.36080144      -1.36058158       0.00000000
Si      -1.36124127       1.35597960      -1.35996374       0.00000000
Si      -1.35412254      -1.36656810       1.37709157       0.00000000
Si       1.35892809       1.35057132       1.39545508       0.00000000
Si       2.71269225      -2.71529865      -0.00305486       0.00000000
Si       2.71313712      -0.00182448      -2.71803964       0.00000000
Si       2.71513575       2.71647153      -0.00284892       0.00000000
Si      -0.00255753       2.71428867      -2.71800531       0.00000000
Si      -2.71762812      -2.71632492      -0.00257432       0.00000000
Si      -2.71871955       2.71578735      -0.00058351       0.00000000
