10
Lattice="16.28999089631971 0.0 0.0 0.0 16.28999089631971 0.0 0.0 0.0 34.32429715621058" Properties=species:S:1:pos:R:3:initial_magmoms:R:1 pbc="T T T"
Si      -1.36708938      -1.35516510       1.34249266       0.00000000
Si      -1.35760860       1.35449721      -1.35752671       0.00000000
Si       1.35582552      -1.35728280      -1.35797293       0.00000000
Si       1.36414971       1.35045729       1.36322455       0.00000000
Si      -2.71173114      -2.71406061       0.00137297       0.00000000
Si       2.71326959       2.71384884      -0.00127000       0.00000000
Si      -2.71269225       2.71529865       0.00305486       0.00000000
Si      -0.00040079       2.55552633       2.86384933       0.00000000
Si       0.00044487       2.71347417      -2.71498477       0.00000000
Si      -2.71430496      -0.00136836      -2.71491613       0.00000000
