10
Lattice="16.28999089631971 0.0 0.0 0.0 16.28999089631971 0.0 0.0 0.0 34.32429715621058" Properties=species:S:1:pos:R:3:initial_magmoms:R:1 pbc="T T T"
Si       1.35778779       1.35690813      -1.35783563       0.00000000
Si      -1.35822762       1.35725022       1.35756104       0.00000000
Si      -1.35803214      -1.35762489      -1.35804158       0.00000000
Si       1.36036161      -1.35578412       1.35845347       0.00000000
Si       2.70500337       0.00311139       2.69957316       0.00000000
Si      -2.70177795       0.00114030       2.70588883       0.00000000
Si       2.71448415       2.71277370      -0.00044622       0.00000000
Si       2.71399545      -2.71470569      -0.00003432       0.00000000
Si       2.71466334      -0.00021177      -2.71474450       0.00000000
Si      -0.00043983       2.71485882      -2.71481315       0.00000000
