10
Lattice="16.28999089631971 0.0 0.0 0.0 16.28999089631971 0.0 0.0 0.0 34.32429715621058" Properties=species:S:1:pos:R:3:initial_magmoms:R:1 pbc="T T T"
Si       2.09202696      -0.18425619       1.07085002       0.00000000
Si      -1.77850962      -1.23010677       0.96997086       0.00000000
Si       0.73924020      -0.14647968      -2.25088569       0.00000000
Si      -0.40728258       2.33833176       0.23470968       0.00000000
Si       1.31859405       2.94301656      -1.18370837       0.00000000
Si      -1.43008281      -0.36823545       3.14753981       0.00000000
Si      -1.34340372       0.27670194      -3.25909384       0.00000000
Si      -3.59152146      -0.03484431       0.05560539       0.00000000
Si       1.57620411      -2.34504324      -2.48415375       0.00000000
Si       2.65614966       1.25672463      -2.36624972       0.00000000
