10
Lattice="16.28999089631971 0.0 0.0 0.0 16.28999089631971 0.0 0.0 0.0 34.32429715621058" Properties=species:S:1:pos:R:3:initial_magmoms:R:1 pbc="T T T"
Si       1.49401728      -1.17436239       1.36844528       0.00000000
Si       1.71544193       1.17980325      -1.09886759       0.00000000
Si      -1.23136110       1.54033353       1.32142096       0.00000000
Si      -0.70211529      -1.95343164      -1.26485998       0.00000000
Si       3.42853091      -0.60168744      -1.23840554       0.00000000
Si       0.14494842      -2.52952749       2.70621491       0.00000000
Si      -2.63974563      -2.62042569      -0.09627284       0.00000000
Si      -2.57083893       0.18780741       2.70264518       0.00000000
Si       2.72346550      -2.59721244       0.01516105       0.00000000
Si      -2.56298715       2.84873004      -0.26628461       0.00000000
