10
Lattice="16.28999089631971 0.0 0.0 0.0 16.28999089631971 0.0 0.0 0.0 34.32429715621058" Properties=species:S:1:pos:R:3:initial_magmoms:R:1 pbc="T T T"
Si       1.34755182       1.33534017       1.37280103       0.00000000
Si       1.35512830      -1.36049193      -1.35793860       0.00000000
Si      -1.36078515       1.35531171      -1.35756104       0.00000000
Si      -1.35620766      -1.36590021       1.39830400       0.00000000
Si       2.58832529      -0.17262513       2.77065881       0.00000000
Si      -0.00231062       2.71230129      -2.71488180       0.00000000
Si      -2.71845891       2.70915732       0.00137297       0.00000000
Si       2.71286234      -0.00270414      -2.71512207       0.00000000
Si       2.71271573       2.71542897      -0.00219676       0.00000000
Si       2.71082609      -2.71792134      -0.00147595       0.00000000
