10
Lattice="16.28999089631971 0.0 0.0 0.0 16.28999089631971 0.0 0.0 0.0 34.32429715621058" Properties=species:S:1:pos:R:3:initial_magmoms:R:1 pbc="T T T"
Si       2.20707413       0.61727697      -0.66956444       0.00000000
Si      -0.53911755       1.71813888       1.58087504       0.00000000
Si      -0.07794765      -2.37755808       0.70914038       0.00000000
Si      -1.96082730       0.77300937      -2.56330562       0.00000000
Si      -3.25303155       0.00557118      -0.73749226       0.00000000
Si       3.16870378       0.70454250       1.49605965       0.00000000
Si       1.57555251       1.97032437       2.74649450       0.00000000
Si      -0.52812180      -2.33297235      -2.86635501       0.00000000
Si      -0.14314023       2.60483616      -2.73197531       0.00000000
Si       0.69383997      -3.56671179      -1.21937134       0.00000000
