10
Lattice="16.28999089631971 0.0 0.0 0.0 16.28999089631971 0.0 0.0 0.0 34.32429715621058" Properties=species:S:1:pos:R:3:initial_magmoms:R:1 pbc="T T T"
Si       1.72587663       0.60468480      -1.41841805       0.00000000
Si      -1.95496290       0.81660141      -0.93969681       0.00000000
Si       0.40728258      -2.33833176      -0.23470968       0.00000000
Si       0.03334563       0.92115063       2.22438732       0.00000000
Si      -3.05740494      -0.24966054       0.86861115       0.00000000
Si       2.90939400       1.57263660       0.34612641       0.00000000
Si       2.33386830       0.64304775       2.48514915       0.00000000
Si      -1.76194269      -0.33135489       2.99067768       0.00000000
Si       2.49930954      -2.52258795       0.83614035       0.00000000
Si      -1.63903464       3.13675353      -0.95981086       0.00000000
