10
Lattice="16.28999089631971 0.0 0.0 0.0 16.28999089631971 0.0 0.0 0.0 34.32429715621058" Properties=species:S:1:pos:R:3:initial_magmoms:R:1 pbc="T T T"
Si       1.35611147      -1.35711990       1.36281266       0.00000000
Si      -1.36236528       1.36140417       1.36442590       0.00000000
Si       1.36239395       1.36896273      -1.36895671       0.00000000
Si      -1.37973042      -1.35698958      -1.37734557       0.00000000
Si       2.71351719      -2.71161711       0.00635000       0.00000000
Si      -2.71920825      -2.70951570       0.00387865       0.00000000
Si      -2.71578735       2.71420722       0.00985108       0.00000000
Si       2.71265708       2.71994130       0.00648730       0.00000000
Si       2.71271736       0.00184077       2.72075126       0.00000000
Si      -0.00280188      -2.71339272       2.72075126       0.00000000
