10
Lattice="16.28999089631971 0.0 0.0 0.0 16.28999089631971 0.0 0.0 0.0 34.32429715621058" Properties=species:S:1:pos:R:3:initial_magmoms:R:1 pbc="T T T"
Si       1.02478761      -0.24677721       2.08132357       0.00000000
Si      -0.14724531       2.31744798      -0.57990932       0.00000000
Si      -2.26786122      -0.42529932       0.76886469       0.00000000
Si       1.67606181      -1.44767601      -1.07390489       0.00000000
Si      -0.14162526      -3.27950280      -0.90523519       0.00000000
Si       0.26241561       1.77787431      -3.01027687       0.00000000
Si       0.24118974       1.77442083       3.15502251       0.00000000
Si       3.23999955       0.39529314       1.60297990       0.00000000
Si       1.89602568      -0.17891307      -3.12883306       0.00000000
Si       0.97873578       3.31198506       1.51469776       0.00000000
