10
Lattice="16.28999089631971 0.0 0.0 0.0 16.28999089631971 0.0 0.0 0.0 34.32429715621058" Properties=species:S:1:pos:R:3:initial_magmoms:R:1 pbc="T T T"
Si       1.29072186       1.27610973       1.46975491       0.00000000
Si      -0.96011631       1.50967575      -1.54219153       0.00000000
Si       1.89439668       0.34950195      -1.44234210       0.00000000
Si      -1.41753951      -1.55541807       1.20124951       0.00000000
Si       2.43325359      -1.96465545      -1.59535990       0.00000000
Si      -2.15326107      -0.26285544      -2.88111446       0.00000000
Si      -2.75854860       2.45749311      -0.16952780       0.00000000
Si       2.18527092       3.05551434       0.16818885       0.00000000
Si      -0.09071901       2.57578818       2.81891335       0.00000000
Si       2.65621091      -0.13786227       2.79734395       0.00000000
