10
Lattice="16.28999089631971 0.0 0.0 0.0 16.28999089631971 0.0 0.0 0.0 34.32429715621058" Properties=species:S:1:pos:R:3:initial_magmoms:R:1 pbc="T T T"
Si      -1.31242014       1.90085959       0.35820857       0.00000000
Si      -1.25450919      -1.03032621      -1.68377934       0.00000000
Si       2.33384291       0.08996967      -0.44851584       0.00000000
Si      -0.12883761      -0.87237837       2.22517678       0.00000000
Si      -0.47736216      -3.25179351      -1.56752288       0.00000000
Si      -2.98335060       0.28779543       2.12532734       0.00000000
Si      -0.84479940       0.26656956      -3.62070051       0.00000000
Si       3.02685209      -2.13172569      -0.43897368       0.00000000
Si       0.41001930      -3.18653577       2.07215898       0.00000000
Si      -3.56044014      -0.70920144      -1.34228671       0.00000000
