10
Lattice="16.28999089631971 0.0 0.0 0.0 16.28999089631971 0.0 0.0 0.0 34.32429715621058" Properties=species:S:1:pos:R:3:initial_magmoms:R:1 pbc="T T T"
Si       0.53885691      -2.31415740      -0.15301780       0.00000000
Si       0.12883761       0.87237837      -2.22517678       0.00000000
Si      -1.89439668      -0.34950195       1.44234210       0.00000000
Si      -2.85451299       1.16017380      -0.09984944       0.00000000
Si      -0.60367482       0.92660778       2.91209701       0.00000000
Si       0.29087424       2.70601239       1.61053094       0.00000000
Si      -1.18358253       2.77323796      -1.86696821       0.00000000
Si       2.46268052       0.96234804      -2.67369262       0.00000000
Si      -0.92405025      -3.30900399      -1.65367691       0.00000000
Si       2.85601886      -2.47140477      -0.63963363       0.00000000
