10
Lattice="16.28999089631971 0.0 0.0 0.0 16.28999089631971 0.0 0.0 0.0 34.32429715621058" Properties=species:S:1:pos:R:3:initial_magmoms:R:1 pbc="T T T"
Si       1.20593078       1.72053351       1.05152063       0.00000000
Si      -1.71544193      -1.17980325       1.09886759       0.00000000
Si      -0.42763598       1.25968941      -1.96402644       0.00000000
Si       1.71308898      -1.78149069      -0.13953796       0.00000000
Si       1.88952597       1.10244204      -2.45064227       0.00000000
Si      -0.22142464      -2.35416564       2.46731286       0.00000000
Si       2.50808985       0.35912934       2.44530068       0.00000000
Si       0.88258243      -2.57142537      -2.34107905       0.00000000
Si      -2.94680303       0.36053028       2.42028855       0.00000000
Si      -1.36592369      -1.96061553      -2.99468268       0.00000000
