10
Lattice="16.28999089631971 0.0 0.0 0.0 16.28999089631971 0.0 0.0 0.0 34.32429715621058" Properties=species:S:1:pos:R:3:initial_magmoms:R:1 pbc="T T T"
Si      -1.50241855       1.80051741      -0.24164319       0.00000000
Si       1.90275345      -1.46163654      -0.14989429       0.00000000
Si      -1.72993357      -0.83836485      -1.45147237       0.00000000
Si       0.86123601       1.86525387      -1.54445694       0.00000000
Si      -0.23628645      -0.99738783       2.43362835       0.00000000
Si       2.11432797      -0.44408169       2.76029287       0.00000000
Si      -0.36538307      -2.04343389      -2.95209715       0.00000000
Si       0.97450038      -3.31141491      -1.45614047       0.00000000
Si      -2.74539347      -2.64473037      -0.16341807       0.00000000
Si       0.92756889       2.89049760       2.32615892       0.00000000
