10
Lattice="16.28999089631971 0.0 0.0 0.0 16.28999089631971 0.0 0.0 0.0 34.32429715621058" Properties=species:S:1:pos:R:3:initial_magmoms:R:1 pbc="T T T"
Si      -0.76261213       1.58607585       1.60153828       0.00000000
Si       0.02366448      -2.24445249       0.98706436       0.00000000
Si       2.39095986       0.22476942      -0.67382065       0.00000000
Si      -2.32654987      -0.25689330      -1.07534651       0.00000000
Si      -0.03902758      -0.86521077      -3.24162276       0.00000000
Si      -2.97782407       0.94400550       2.07988195       0.00000000
Si       0.17196050       1.21676526       3.69614536       0.00000000
Si       1.22710452      -3.66311601      -0.56635122       0.00000000
Si      -2.10658600       1.01186964      -3.13027468       0.00000000
Si       0.98529413      -2.15718696       3.15268846       0.00000000
