10
Lattice="16.28999089631971 0.0 0.0 0.0 16.28999089631971 0.0 0.0 0.0 34.32429715621058" Properties=species:S:1:pos:R:3:initial_magmoms:R:1 pbc="T T T"
Si       0.14804352       2.08505484       1.19548161       0.00000000
Si       0.36895221      -1.88600733       1.47529344       0.00000000
Si      -2.35061442      -0.55330614      -0.32666452       0.00000000
Si      -0.21157452      -1.01755485      -2.91018716       0.00000000
Si      -2.11432797       0.44408169      -2.76029287       0.00000000
Si      -1.18675908       3.33457929      -0.43413395       0.00000000
Si       0.86183874      -3.50753022      -0.19461887       0.00000000
Si      -3.55405446       0.86535738       1.22675107       0.00000000
Si      -2.73407613      -2.88984600       0.52063123       0.00000000
Si      -1.58208480      -2.69700498       2.57614291       0.00000000
