10
Lattice="16.28999089631971 0.0 0.0 0.0 16.28999089631971 0.0 0.0 0.0 34.32429715621058" Properties=species:S:1:pos:R:3:initial_magmoms:R:1 pbc="T T T"
Si       1.35773540       1.35601218       1.35673725       0.00000000
Si      -1.35787180       1.35739683      -1.35738941       0.00000000
Si       1.35785920      -1.35744570      -1.35745806       0.00000000
Si      -1.35847453      -1.35698958       1.35732077       0.00000000
Si       0.00231062      -2.71230129       2.71488180       0.00000000
Si       2.71502634       0.00312768       2.71268504       0.00000000
Si      -0.00071932       2.71339272      -2.71532802       0.00000000
Si      -0.00078448       2.71279069       2.71635775       0.00000000
Si       2.71505892       2.71458247      -0.00034324       0.00000000
Si      -2.71538266      -2.71448415      -0.00027459       0.00000000
