10
Lattice="16.28999089631971 0.0 0.0 0.0 16.28999089631971 0.0 0.0 0.0 34.32429715621058" Properties=species:S:1:pos:R:3:initial_magmoms:R:1 pbc="T T T"
Si      -0.50398558       2.26120580      -0.24497265       0.00000000
Si       2.26639675      -0.41150169      -0.41199477       0.00000000
Si      -0.67874470      -0.55850265       2.19579516       0.00000000
Si       1.75010149      -1.62023598      -2.42192376       0.00000000
Si      -1.99794148       2.18467538      -2.25057677       0.00000000
Si      -1.10746492       3.07565693       1.89799740       0.00000000
Si      -2.96488330       0.00462636       2.45284997       0.00000000
Si      -0.70361953      -2.91206556       2.54113211       0.00000000
Si       0.53143682       0.45877040       3.97249043       0.00000000
Si       3.43859257      -2.10895227       0.62089256       0.00000000
