10
Lattice="10.86 0.0 0.0 0.0 10.86 0.0 0.0 0.0 10.86" Properties=species:S:1:pos:R:3:initial_magmoms:R:1 pbc="T T T"
Si      -1.36874010       1.13218758      -1.31462472       0.00000000
Si       1.44561804       1.20715416       1.42854612       0.00000000
Si       1.34625990      -1.58281242      -1.31462472       0.00000000
Si      -1.36874010      -1.58281242       1.40037528       0.00000000
Si       0.02069916       2.51694618      -2.47484196       0.00000000
Si      -0.24531654       2.32404000       2.72001732       0.00000000
Si       2.60765976      -0.34300224       2.56696734       0.00000000
Si      -2.72624010       2.48968758       0.04287528       0.00000000
Si       2.85888414      -0.20891382      -2.45485956       0.00000000
Si      -2.72624010      -0.22531242      -2.67212472       0.00000000
