10
Lattice="10.86 0.0 0.0 0.0 10.86 0.0 0.0 0.0 10.86" Properties=species:S:1:pos:R:3:initial_magmoms:R:1 pbc="T T T"
Si      -1.45354584       1.27483368      -1.23982104       0.00000000
Si       1.26145416       1.27483368       1.47517896       0.00000000
Si      -1.45354584      -1.44016632       1.47517896       0.00000000
Si      -0.09604584       2.63233368      -2.59732104       0.00000000
Si       2.61895416       2.63233368       0.11767896       0.00000000
Si      -2.99808762       0.16602768      -2.33579052       0.00000000
Si      -2.81104584       2.63233368       0.11767896       0.00000000
Si       2.61895416      -0.08266632       2.83267896       0.00000000
Si      -0.09604584       2.63233368       2.83267896       0.00000000
Si      -0.09604584      -2.79766632       2.83267896       0.00000000
