10
Lattice="16.290000149 0.0 0.0 0.0 16.290000149 0.0 0.0 0.0 29.1751946751" Properties=species:S:1:pos:R:3:initial_magmoms:R:1 pbc="T T T"
H        0.45893817       1.28405926      -0.65752136       0.00000000
Si      -0.81518419       0.98969896       1.93945024       0.00000000
Si      -1.87931216      -0.70314157      -1.27720250       0.00000000
Si       2.01025118      -1.36374994      -0.08323683       0.00000000
H        0.96728392      -0.25298370      -2.47674063       0.00000000
H       -0.65518381      -2.66750381      -1.05471246       0.00000000
Si       3.16539952       0.69750523      -0.67569751       0.00000000
Si      -2.31609593       2.30052269       0.64194181       0.00000000
Si       0.78724684      -2.95314897      -1.49616233       0.00000000
Si       1.99627436       0.85564855      -2.69447510       0.00000000
