10
Lattice="16.290000149 0.0 0.0 0.0 16.290000149 0.0 0.0 0.0 29.1751946751" Properties=species:S:1:pos:R:3:initial_magmoms:R:1 pbc="T T T"
Si      -1.07865865      -1.16652691       1.70692394       0.00000000
Si       0.87521284      -1.78188167      -1.28365022       0.00000000
Si       1.87286132       1.46209267       0.15888811       0.00000000
Si      -1.59936850       1.30233664      -1.21173336       0.00000000
H        0.47886084       2.30086478       1.78744748       0.00000000
H       -1.23033484      -0.36944091       2.98237593       0.00000000
H        2.59242320       1.54056160       1.48425885       0.00000000
Si       1.99632323      -0.34116147      -2.83518707       0.00000000
Si      -3.28981440      -1.08914941       0.90072579       0.00000000
Si      -0.28536822       2.65882124      -2.59834284       0.00000000
