10
Lattice="16.290000149 0.0 0.0 0.0 16.290000149 0.0 0.0 0.0 29.1751946751" Properties=species:S:1:pos:R:3:initial_magmoms:R:1 pbc="T T T"
Si       1.34653793      -1.33617097       1.37668991       0.00000000
Si      -1.27178344       1.35951454       1.42433300       0.00000000
Si       1.34300300       1.36687762      -1.36248159       0.00000000
Si      -1.37910490      -1.36003582      -1.33572794       0.00000000
Si       2.65975629       0.13072725       2.65870632       0.00000000
Si      -2.66287094       2.71489142       0.07381324       0.00000000
Si       0.01716640      -2.70043731      -2.68105451       0.00000000
Si      -0.07592606      -2.62646442       2.75857301       0.00000000
Si      -2.68375472       0.01897785      -2.70944198       0.00000000
Si       2.72084379       0.01940139      -2.71828206       0.00000000
