10
Lattice="16.290000149 0.0 0.0 0.0 16.290000149 0.0 0.0 0.0 29.1751946751" Properties=species:S:1:pos:R:3:initial_magmoms:R:1 pbc="T T T"
Si       1.68223574      -1.67397671      -0.25309481       0.00000000
Si      -1.86012254      -0.83549782      -1.25715914       0.00000000
Si      -0.62512876       0.34391448       2.32672178       0.00000000
Si       0.68382163       1.85839580      -1.42013178       0.00000000
H        2.22146732       0.79407235       1.12718365       0.00000000
H       -1.08348049       2.48367116       0.10783152       0.00000000
H       -2.61094493      -0.28186587       1.24636432       0.00000000
H        0.59899960      -1.62044776       2.54921181       0.00000000
H       -0.50279085       2.36543834      -2.22492952       0.00000000
H       -3.26176302       0.14094108       1.20426451       0.00000000
