10
Lattice="16.290000149 0.0 0.0 0.0 16.290000149 0.0 0.0 0.0 29.1751946751" Properties=species:S:1:pos:R:3:initial_magmoms:R:1 pbc="T T T"
Si       1.41413328       1.43690833       1.17068386       0.00000000
Si       1.43937953      -1.23992965      -1.36968786       0.00000000
Si      -1.28723581       1.42032511      -1.35512944       0.00000000
Si      -1.63593956      -1.05845905       1.43285216       0.00000000
H        0.25410445      -2.69065190       1.69213212       0.00000000
H       -1.09670797       1.40959000       2.81313062       0.00000000
Si      -0.06771753       2.51822225       2.59539614       0.00000000
Si      -2.63435366       2.47391345       0.26581520       0.00000000
Si      -3.31817529       0.61551766       1.68594697       0.00000000
Si       0.08150180      -2.65046447      -2.68333018       0.00000000
