10
Lattice="16.290000149 0.0 0.0 0.0 16.290000149 0.0 0.0 0.0 29.1751946751" Properties=species:S:1:pos:R:3:initial_magmoms:R:1 pbc="T T T"
Si      -1.30464982       1.37901367      -1.37371404       0.00000000
Si       1.37910490       1.36003582       1.33572794       0.00000000
Si       1.39627130      -1.34040149      -1.34532658       0.00000000
Si      -1.38636046      -1.33551774       1.37809032       0.00000000
Si       0.08259647      -2.62849317       2.64584005       0.00000000
Si      -2.67682169      -0.00736308      -2.68178389       0.00000000
Si      -2.62777250       2.74734111       0.00282999       0.00000000
Si       0.02603142      -2.71402805      -2.67413999       0.00000000
Si      -2.61570161       0.08974161       2.80361951       0.00000000
Si       2.72564282       0.02386485       2.71241785       0.00000000
