10
Lattice="16.290000149 0.0 0.0 0.0 16.290000149 0.0 0.0 0.0 29.1751946751" Properties=species:S:1:pos:R:3:initial_magmoms:R:1 pbc="T T T"
Si       1.36441783       1.35568639       1.34763142       0.00000000
Si       1.36989127      -1.36345672      -1.33660319       0.00000000
Si      -1.34846992      -1.34757397       1.37849877       0.00000000
Si      -1.34829073       1.36058968      -1.36583674       0.00000000
Si      -0.01078398       2.71972955       2.68102534       0.00000000
Si       2.71560818      -0.02099781       2.68936945       0.00000000
Si       2.72127710       0.01190799      -2.68385533       0.00000000
Si      -2.69638598      -2.70923879       0.02739551       0.00000000
Si       0.02301777      -2.72041373      -2.69925984       0.00000000
Si      -2.70834284       0.00625536      -2.71968247       0.00000000
