10
Lattice="16.290000149 0.0 0.0 0.0 16.290000149 0.0 0.0 0.0 29.1751946751" Properties=species:S:1:pos:R:3:initial_magmoms:R:1 pbc="T T T"
Si       0.90951958       0.07131762      -1.21575954       0.00000000
H       -1.26943084      -1.76000420      -0.42365300       0.00000000
H        1.89881129       0.42305130       1.24163793       0.00000000
Si      -1.80656102      -2.01820070       0.96138102       0.00000000
Si       0.01674612       1.49110516      -2.80747063       0.00000000
Si       1.18320787       2.94096079       0.25023564       0.00000000
Si       1.24108624      -2.05123682      -2.14624402       0.00000000
Si       2.79977862       1.40968774      -0.82962584       0.00000000
Si      -2.65049705      -0.14405247       2.08240870       0.00000000
H       -2.85316095      -0.93092464      -1.59620408       0.00000000
