10
Lattice="16.290000149 0.0 0.0 0.0 16.290000149 0.0 0.0 0.0 29.1751946751" Properties=species:S:1:pos:R:3:initial_magmoms:R:1 pbc="T T T"
Si      -2.24487605       0.51039828      -0.27182529       0.00000000
Si       0.92861960      -0.81421167      -1.99844248       0.00000000
Si       0.28599115      -1.82139143       1.57473113       0.00000000
Si       1.33356946       1.97933276       0.48859699       0.00000000
Si       2.96782626       0.79855210       1.70435915       0.00000000
Si       1.63215865      -0.60819693       3.05725990       0.00000000
Si       2.77180869      -1.98436637      -1.05809679       0.00000000
Si      -0.92595619      -1.72273593      -3.14884959       0.00000000
Si      -2.97515676       1.14284125       1.90803818       0.00000000
Si       1.45678865      -3.41306454       0.28868855       0.00000000
