10
Lattice="16.290000149 0.0 0.0 0.0 16.290000149 0.0 0.0 0.0 29.1751946751" Properties=species:S:1:pos:R:3:initial_magmoms:R:1 pbc="T T T"
Si       1.37487601       1.34270326      -1.34226318       0.00000000
Si       1.36203949      -1.39483126       1.30468553       0.00000000
Si      -1.35469270      -1.35335692      -1.36032263       0.00000000
Si      -1.35552349       1.36959805       1.34792317       0.00000000
Si       0.00575037       2.69101028      -2.68359276       0.00000000
Si       2.78257638      -0.08532702       2.61826950       0.00000000
Si      -2.74113461       0.01078398       2.66541661       0.00000000
Si       0.01259217      -2.75144619       2.65926064       0.00000000
Si       0.01470987      -2.73220769      -2.68312595       0.00000000
Si       0.01834254       2.73745308       2.68280503       0.00000000
