10
Lattice="16.290000149 0.0 0.0 0.0 16.290000149 0.0 0.0 0.0 29.1751946751" Properties=species:S:1:pos:R:3:initial_magmoms:R:1 pbc="T T T"
Si      -1.25398792       1.10702117      -1.60221417       0.00000000
Si      -1.89530894      -0.01807864       1.33884968       0.00000000
Si       1.57343482       1.68714065       0.44322956       0.00000000
Si       0.43968339      -2.28889000       0.29606988       0.00000000
H        1.83490562       0.56239597      -2.39610039       0.00000000
H       -2.07462926       1.36932275       1.94969073       0.00000000
Si      -1.06134238      -1.26263628       3.05175454       0.00000000
Si       2.05289840      -2.46288349      -1.38745556       0.00000000
Si       0.84315412       2.31958362       2.62309303       0.00000000
Si      -2.58721040       2.65251864      -0.44518430       0.00000000
