10
Lattice="16.290000149 0.0 0.0 0.0 16.290000149 0.0 0.0 0.0 29.1751946751" Properties=species:S:1:pos:R:3:initial_magmoms:R:1 pbc="T T T"
Si       1.53730360      -1.27187434      -1.19834195       0.00000000
Si       1.39525480       1.32196609       1.36490021       0.00000000
Si      -1.21710736      -1.43433451       1.44247414       0.00000000
Si      -1.47220876       1.20940219      -1.45394583       0.00000000
H        0.35554554      -1.80884162      -2.25010771       0.00000000
Si      -2.67103874       2.68266980      -0.02520737       0.00000000
Si       2.85407856       2.50110146      -0.05225277       0.00000000
Si      -2.64873773      -0.06247215       2.72682748       0.00000000
Si      -0.14180445       2.54161469      -2.85245878       0.00000000
Si       0.06460614       2.76205098       2.67895682       0.00000000
