10
Lattice="16.290000149 0.0 0.0 0.0 16.290000149 0.0 0.0 0.0 29.1751946751" Properties=species:S:1:pos:R:3:initial_magmoms:R:1 pbc="T T T"
Si       1.24932898      -1.37068948       1.41315015       0.00000000
Si      -1.28746387       1.44896293       1.32813947       0.00000000
Si       1.90772192       0.79026049      -1.12203714       0.00000000
Si      -1.83912473      -0.88138675      -1.18586663       0.00000000
H        0.69504544      -1.82858510      -1.92198597       0.00000000
Si       1.25421598       1.21397968      -3.25348350       0.00000000
Si       2.66893733       0.05851368       2.64897931       0.00000000
Si      -2.71484255       0.05839965       2.60965114       0.00000000
Si       2.74699902      -2.60671931       0.13305639       0.00000000
Si      -3.47219724       0.85413358      -1.26998280       0.00000000
