10
Lattice="16.290000149 0.0 0.0 0.0 16.290000149 0.0 0.0 0.0 29.1751946751" Properties=species:S:1:pos:R:3:initial_magmoms:R:1 pbc="T T T"
Si       1.13577302      -0.96891292      -0.28895113       0.00000000
Si      -1.89004401       1.63219285      -0.25927996       0.00000000
H       -1.15183007      -1.80985160       1.92958903       0.00000000
Si      -1.53084951       1.40007664       2.10157680       0.00000000
Si      -0.18348926      -2.66520692      -1.43054732       0.00000000
Si       2.42786488      -0.81308278       1.73677016       0.00000000
Si       2.61422248       0.23656338      -1.67678596       0.00000000
Si      -0.25410445       2.69065190      -1.69213212       0.00000000
Si      -1.08271160      -0.73389709       2.99010735       0.00000000
Si      -2.96070427      -0.05499504      -1.64408057       0.00000000
