10
Lattice="16.290000149 0.0 0.0 0.0 16.290000149 0.0 0.0 0.0 29.1751946751" Properties=species:S:1:pos:R:3:initial_magmoms:R:1 pbc="T T T"
Si       1.42516324      -1.36021501      -1.27025880       0.00000000
Si       1.35627283       1.34975683       1.35451676       0.00000000
Si      -1.32467023      -1.38702835       1.38302093       0.00000000
Si      -1.33947784       1.33652935      -1.42185311       0.00000000
Si       0.03515382      -2.70524774      -2.54583916       0.00000000
Si      -2.68581377       2.61566903       0.03894888       0.00000000
Si       2.69715161       2.70286940      -0.03092571       0.00000000
Si       2.70166394      -0.03082068       2.70915023       0.00000000
Si       0.01221750       2.68027517       2.74165139       0.00000000
Si      -2.71137278      -0.06972120      -2.73421464       0.00000000
