10
Lattice="16.290000149 0.0 0.0 0.0 16.290000149 0.0 0.0 0.0 29.1751946751" Properties=species:S:1:pos:R:3:initial_magmoms:R:1 pbc="T T T"
Si       1.35322660       1.39779604      -1.32036428       0.00000000
Si      -1.35205372       1.36930483       1.35845541       0.00000000
Si       1.37643985      -1.34726446       1.35956407       0.00000000
Si      -1.36238158      -1.36769212      -1.36348230       0.00000000
Si       2.73541683       0.04113225      -2.64447174       0.00000000
Si      -2.70812945      -2.69676065       0.01800110       0.00000000
Si       2.69035868       2.72253143       0.08454971       0.00000000
Si      -2.69835545       0.02166570       2.72750142       0.00000000
Si       0.02130732      -2.69112431       2.73572883       0.00000000
Si      -2.71765421       2.71738379      -0.01356647       0.00000000
