10
Lattice="16.290000149 0.0 0.0 0.0 16.290000149 0.0 0.0 0.0 29.1751946751" Properties=species:S:1:pos:R:3:initial_magmoms:R:1 pbc="T T T"
Si       1.33371118       1.33984600      -1.32892720       0.00000000
Si      -1.33019254       1.41956926       1.28633433       0.00000000
Si       1.43400871      -1.34630987       1.26200222       0.00000000
Si      -1.36065484      -1.28259577      -1.41014802       0.00000000
Si       0.05419683      -2.69007198       2.59711748       0.00000000
Si      -2.67884165       0.04587590       2.62360856       0.00000000
Si       0.05530455       2.76996140       2.61126745       0.00000000
Si       2.78070303       0.04154927       2.60158128       0.00000000
Si      -2.71054199      -2.67762642      -0.09934154       0.00000000
Si      -0.03916116      -2.77124505      -2.61800108       0.00000000
