10
Lattice="16.290000149 0.0 0.0 0.0 16.290000149 0.0 0.0 0.0 29.1751946751" Properties=species:S:1:pos:R:3:initial_magmoms:R:1 pbc="T T T"
Si      -0.35256447       0.88751179       2.13381539       0.00000000
Si      -1.85528441      -0.93128302      -1.10757792       0.00000000
Si       1.05567346       1.76189384      -1.18267487       0.00000000
Si       1.60044364      -1.77907979      -0.09420670       0.00000000
Si       2.13868154       0.34108002      -2.68012091       0.00000000
Si      -0.67245121      -2.38334105      -2.52070764       0.00000000
Si       1.27498573       2.56948688       2.20182277       0.00000000
Si       2.22373163      -2.18725832       2.05422546       0.00000000
Si       3.43450218      -0.95118940      -1.25190760       0.00000000
Si      -3.15916860      -2.17166879       0.38843854       0.00000000
