10
Lattice="16.290000149 0.0 0.0 0.0 16.290000149 0.0 0.0 0.0 29.1751946751" Properties=species:S:1:pos:R:3:initial_magmoms:R:1 pbc="T T T"
H       -0.06911847      -1.07595451      -1.06051833       0.00000000
Si       2.19629927       0.19043010       0.65833827       0.00000000
Si      -1.62059437      -0.67463407       1.56303188       0.00000000
Si      -0.44813790       2.13397373      -0.88853055       0.00000000
H       -1.89056855       2.41961888      -0.44708068       0.00000000
H        1.08271160       0.73389709      -2.99010735       0.00000000
Si      -3.15584544      -1.39626478      -0.04650526       0.00000000
H       -1.28642131      -3.26134111       0.65559580       0.00000000
Si       2.99584506      -2.06795036       0.44993985       0.00000000
Si       3.51057648      -0.07918569      -1.25333719       0.00000000
