10
Lattice="16.290000149 0.0 0.0 0.0 16.290000149 0.0 0.0 0.0 29.1751946751" Properties=species:S:1:pos:R:3:initial_magmoms:R:1 pbc="T T T"
Si      -0.56189098       1.03379599       2.00920813       0.00000000
Si      -1.62755020      -1.68197510      -0.06800738       0.00000000
Si       2.19538703      -0.72664804      -0.46330209       0.00000000
Si       0.04385268       2.14613259      -0.97801088       0.00000000
Si       0.68126410       2.82101589       1.16869995       0.00000000
Si       1.90672823       0.16425207      -2.70366529       0.00000000
Si       1.91128943      -2.75920023       0.72774606       0.00000000
Si      -3.46258614      -0.23467374       0.10476812       0.00000000
Si      -0.21931227      -0.80759305      -3.38449763       0.00000000
Si      -2.79469614       1.54155529       1.68510089       0.00000000
