10
Lattice="16.290000149 0.0 0.0 0.0 16.290000149 0.0 0.0 0.0 29.1751946751" Properties=species:S:1:pos:R:3:initial_magmoms:R:1 pbc="T T T"
Si       1.38782656       1.27436671       1.37788055       0.00000000
Si      -1.63425680       1.18078066      -1.21576216       0.00000000
Si       1.25130007      -1.34274725      -1.48621622       0.00000000
Si      -1.33566761      -1.40674903       1.35290075       0.00000000
Si      -2.96782626      -0.79855210      -1.70435915       0.00000000
Si      -2.68183511      -2.61994353      -0.12962802       0.00000000
Si      -0.03137454       2.65610081       2.66194214       0.00000000
Si       2.60822450      -2.72982251      -0.08770326       0.00000000
Si       2.59076162      -0.12294063       2.81929855       0.00000000
Si       3.26199108       2.07674696       0.18227991       0.00000000
