10
Lattice="16.290000149 0.0 0.0 0.0 16.290000149 0.0 0.0 0.0 29.1751946751" Properties=species:S:1:pos:R:3:initial_magmoms:R:1 pbc="T T T"
Si       1.35934024       1.35125551      -1.35311635       0.00000000
Si       1.36610059      -1.34182360       1.36201479       0.00000000
Si      -1.34057015       1.36143676       1.37076735       0.00000000
Si      -1.34931212      -1.37759644      -1.35116162       0.00000000
Si      -2.68649307      -0.05362668       2.67308969       0.00000000
Si       2.66640098      -2.69799869      -0.05794194       0.00000000
Si      -0.03011858       2.70042590      -2.68298008       0.00000000
Si      -2.69198280      -0.01956429      -2.72032433       0.00000000
Si       2.67762479      -0.01166364      -2.74351861       0.00000000
Si       2.72473547       0.04145805       2.70932528       0.00000000
