10
Lattice="16.290000149 0.0 0.0 0.0 16.290000149 0.0 0.0 0.0 29.1751946751" Properties=species:S:1:pos:R:3:initial_magmoms:R:1 pbc="T T T"
Si       1.35181915       1.35252613       1.36157716       0.00000000
Si       1.38834947      -1.36122499      -1.32297838       0.00000000
Si      -1.33823980      -1.35769006       1.38016176       0.00000000
Si      -1.34539111       1.38057751      -1.35463346       0.00000000
Si      -2.68944644       2.71109585       0.03250117       0.00000000
Si       0.05335040      -2.73823500      -2.66810073       0.00000000
Si      -2.70166394       0.03082068      -2.70915023       0.00000000
Si       2.71073747       2.70441695      -0.00064185       0.00000000
Si       2.69094512      -0.00573408       2.72525493       0.00000000
Si      -2.69718419      -2.72318303       0.04971453       0.00000000
