10
Lattice="16.290000149 0.0 0.0 0.0 16.290000149 0.0 0.0 0.0 29.1751946751" Properties=species:S:1:pos:R:3:initial_magmoms:R:1 pbc="T T T"
Si      -0.47788344       2.02932677      -1.05940967       0.00000000
Si       1.59413941       0.81283843       1.56136889       0.00000000
Si       1.29764512      -1.50035788      -1.32073189       0.00000000
Si      -1.86937526      -0.89629210       1.27726085       0.00000000
H       -2.78760999      -0.73246357      -1.26459881       0.00000000
H        1.03514806       1.17753895      -2.76271588       0.00000000
H       -1.07841430       1.93784213      -2.45952726       0.00000000
Si      -2.19320417       2.47189349       0.46607373       0.00000000
Si       2.22379679      -2.54420480       0.51360013       0.00000000
Si       3.29554848      -0.78483592       1.57697762       0.00000000
