10
Lattice="16.290000149 0.0 0.0 0.0 16.290000149 0.0 0.0 0.0 29.1751946751" Properties=species:S:1:pos:R:3:initial_magmoms:R:1 pbc="T T T"
Si       1.40594104       1.32271543      -1.25164503       0.00000000
Si      -1.42542388      -1.38973249      -1.18031168       0.00000000
Si       1.29582064      -1.29226942       1.42821330       0.00000000
Si      -1.08300808       1.42081381       1.49744604       0.00000000
H        2.12920076      -0.36430956       2.25827677       0.00000000
Si      -0.53823789      -2.12015981       2.58591420       0.00000000
Si       1.04303242       2.39265893       2.17827838       0.00000000
Si      -2.13868154      -0.34108002       2.68012091       0.00000000
Si       2.62474256       2.46785357       0.36918291       0.00000000
Si       0.00918756      -2.71090037      -2.46337839       0.00000000
