10
Lattice="16.290000149 0.0 0.0 0.0 16.290000149 0.0 0.0 0.0 29.1751946751" Properties=species:S:1:pos:R:3:initial_magmoms:R:1 pbc="T T T"
Si      -1.48185081       1.08131392       1.42471228       0.00000000
Si      -1.41413328      -1.43690833      -1.17068386       0.00000000
Si       1.57140020      -1.07098606       1.36006005       0.00000000
Si       1.31551688       1.47903427      -1.27040468       0.00000000
H       -2.51084125      -0.02731833       1.64244676       0.00000000
Si       1.99718823       0.73933795       2.84875353       0.00000000
Si      -0.31272565       0.92317060       3.44348988       0.00000000
Si       0.02524624      -2.67683798      -2.54037173       0.00000000
Si      -2.70136910      -0.01658322      -2.52581330       0.00000000
Si       2.82587682       0.15780123      -2.52628011       0.00000000
