10
Lattice="16.290000149 0.0 0.0 0.0 16.290000149 0.0 0.0 0.0 29.1751946751" Properties=species:S:1:pos:R:3:initial_magmoms:R:1 pbc="T T T"
Si       0.88528006      -0.85069639       0.88713014       0.00000000
H       -1.89881129      -0.42305130      -1.24163793       0.00000000
Si       0.90096733       0.98663644      -2.07126377       0.00000000
Si      -0.98929171      -0.35173368      -2.45739747       0.00000000
Si      -0.71560342       2.51790949      -0.99140229       0.00000000
Si      -1.44990775       2.17416442       1.27063808       0.00000000
Si       1.91557370      -2.33851097      -0.58429162       0.00000000
Si      -0.50995845      -2.08314893       2.31493500       0.00000000
Si       2.78541084       0.45121671       1.51390085       0.00000000
Si       2.83499760      -0.50415921      -1.75800971       0.00000000
