10
Lattice="16.290000149 0.0 0.0 0.0 16.290000149 0.0 0.0 0.0 29.1751946751" Properties=species:S:1:pos:R:3:initial_magmoms:R:1 pbc="T T T"
H        0.90806977      -0.89492374       0.81136216       0.00000000
Si       1.34680834       1.30774492      -1.39267792       0.00000000
Si      -1.14471460       1.42516324       1.46430302       0.00000000
Si      -1.31321836      -1.46689822      -1.28201640       0.00000000
H       -1.12045879      -1.25410195       2.21690634       0.00000000
Si      -2.57366201       2.63932211       0.07926900       0.00000000
Si      -0.50357277      -2.55569088       2.66115703       0.00000000
Si      -2.65975629      -0.13072725      -2.65870632       0.00000000
Si      -0.00767259       2.66553272      -2.69727592       0.00000000
Si       2.73396702       2.65885382      -0.09899144       0.00000000
