10
Lattice="16.290000149 0.0 0.0 0.0 16.290000149 0.0 0.0 0.0 29.1751946751" Properties=species:S:1:pos:R:3:initial_magmoms:R:1 pbc="T T T"
Si       1.41885901      -1.37207413       1.25389152       0.00000000
Si       1.37668420       1.31924566      -1.36396953       0.00000000
Si      -1.33261975       1.34348518       1.40253913       0.00000000
Si      -1.35863488      -1.38328165      -1.34731049       0.00000000
Si       0.11497482      -2.61245990       2.74990797       0.00000000
Si      -2.68920372       2.68382639       0.01692161       0.00000000
Si       0.00327429       2.67170663      -2.70947115       0.00000000
Si      -2.78073723      -0.03044601       2.63434503       0.00000000
Si       2.78283702       2.64526796      -0.00513483       0.00000000
Si      -2.72473547      -0.04145805      -2.70932528       0.00000000
