10
Lattice="16.290000149 0.0 0.0 0.0 16.290000149 0.0 0.0 0.0 29.1751946751" Properties=species:S:1:pos:R:3:initial_magmoms:R:1 pbc="T T T"
Si       2.24487605      -0.51039828       0.27182529       0.00000000
Si      -1.57343482      -1.68714065      -0.44322956       0.00000000
Si      -0.73028071       0.63244297       2.17986347       0.00000000
Si      -0.07270227       1.46196235      -1.93189387       0.00000000
H        0.26147079      -1.12474469      -2.83932995       0.00000000
Si      -2.82742275      -0.58011949      -2.04544372       0.00000000
Si      -1.30253212       3.31284846      -1.26617427       0.00000000
Si       3.17349565      -1.32460996      -1.72661720       0.00000000
Si       1.31891986      -2.23313422      -2.87702430       0.00000000
H       -0.00532683       3.86296177      -0.34549266       0.00000000
