10
Lattice="16.290000149 0.0 0.0 0.0 16.290000149 0.0 0.0 0.0 29.1751946751" Properties=species:S:1:pos:R:3:initial_magmoms:R:1 pbc="T T T"
Si       1.34154830       1.36148563       1.35559625       0.00000000
Si      -1.33670854       1.37300266      -1.35457511       0.00000000
Si       1.36480065      -1.35290080      -1.34952780       0.00000000
Si      -1.35586558      -1.34739478       1.37138003       0.00000000
Si      -2.69565293       0.00750969      -2.68502234       0.00000000
Si       2.67089213       0.00050499       2.71834041       0.00000000
Si      -0.00501732      -2.72269433      -2.67463597       0.00000000
Si      -2.68480379       2.71922456       0.01199101       0.00000000
Si       2.69325830      -2.71402805       0.02395283       0.00000000
Si       2.69247638       2.72495864      -0.00948194       0.00000000
