10
Lattice="16.290000149 0.0 0.0 0.0 16.290000149 0.0 0.0 0.0 29.1751946751" Properties=species:S:1:pos:R:3:initial_magmoms:R:1 pbc="T T T"
Si      -0.97070482       1.45479475       1.51197529       0.00000000
Si       1.56644641      -1.28057320       1.12519973       0.00000000
Si       1.61754814       1.03026106      -1.39410750       0.00000000
Si      -1.89877871      -1.49944564      -0.31905993       0.00000000
H       -0.38574720      -2.35123346      -2.02236614       0.00000000
H        0.76010770      -0.72075106      -3.14459001       0.00000000
H       -2.49930956      -1.59093028      -1.71917752       0.00000000
Si       0.17324415      -2.71593398       2.30171863       0.00000000
Si      -2.66098781       2.38314557       0.20104627       0.00000000
H       -2.12385764       2.64134207      -1.18398775       0.00000000
