10
Lattice="16.290000149 0.0 0.0 0.0 16.290000149 0.0 0.0 0.0 29.1751946751" Properties=species:S:1:pos:R:3:initial_magmoms:R:1 pbc="T T T"
Si       1.29780802       1.28373151       1.50621611       0.00000000
Si      -1.33512841      -1.36479934       1.40853755       0.00000000
Si       1.48514302      -1.29875968      -1.33616557       0.00000000
Si      -1.35692443       1.38707527      -1.39851296       0.00000000
Si       0.00060273      -2.55268245      -2.70877095       0.00000000
Si      -2.60822450       2.72982251       0.08770326       0.00000000
Si       2.69915528      -2.71452360       0.11179555       0.00000000
Si       2.28683909       3.07104915       0.35409934       0.00000000
Si       2.37004841       2.37844721      -1.87532316       0.00000000
Si       0.16671186       2.76124592      -2.67845792       0.00000000
