10
Lattice="16.290000149 0.0 0.0 0.0 16.290000149 0.0 0.0 0.0 29.1751946751" Properties=species:S:1:pos:R:3:initial_magmoms:R:1 pbc="T T T"
Si      -1.67025118      -0.78402142       1.44636028       0.00000000
Si       1.10744471       1.70696396       1.24954441       0.00000000
Si      -0.52392387       0.67601872      -2.23044363       0.00000000
Si       1.41398342      -1.94896820      -0.00329680       0.00000000
H       -2.85200924      -1.32098869       0.39459451       0.00000000
Si       2.46369474       0.29903553       2.56260322       0.00000000
Si       0.89750896      -2.85692394      -2.09650031       0.00000000
Si       3.47111721      -0.94025881       0.71913937       0.00000000
Si      -0.53035842      -2.28659474       2.82835161       0.00000000
H        2.86705143      -0.37817235      -2.38384681       0.00000000
