10
Lattice="16.290000149 0.0 0.0 0.0 16.290000149 0.0 0.0 0.0 29.1751946751" Properties=species:S:1:pos:R:3:initial_magmoms:R:1 pbc="T T T"
Si       1.57837069      -1.09561654       1.30103863       0.00000000
Si      -1.21880152      -1.14513814      -1.62082794       0.00000000
Si      -1.58171014      -0.07519464       1.80909547       0.00000000
Si       1.31660668       1.58557087      -1.26354851       0.00000000
H        0.96663232      -1.90192268       2.41062964       0.00000000
H       -0.49554180      -2.83216314       1.88909386       0.00000000
Si      -1.69769495       2.23008473       2.04302218       0.00000000
Si      -2.62474256      -2.46785357      -0.36918291       0.00000000
Si       2.84120409      -2.46322721      -0.08676703       0.00000000
Si       0.15442920      -2.51263478      -2.87355245       0.00000000
