10
Lattice="16.290000149 0.0 0.0 0.0 16.290000149 0.0 0.0 0.0 29.1751946751" Properties=species:S:1:pos:R:3:initial_magmoms:R:1 pbc="T T T"
Si       2.20333655      -0.38279871       0.80313476       0.00000000
Si       0.04854420       2.29371347       0.66522361       0.00000000
Si       0.14921640      -0.41361939      -2.35712233       0.00000000
Si      -1.52363629      -1.37417066       1.27994497       0.00000000
H       -2.16560891      -0.21144420      -1.43051815       0.00000000
H       -0.86969053       2.45754200      -1.87663605       0.00000000
Si       0.48705471       2.04532355       2.94844109       0.00000000
Si      -0.71801434       1.66045601      -3.15208803       0.00000000
Si       2.12012723       0.30980322       3.03255726       0.00000000
Si       2.44773542      -0.35580618      -2.81280969       0.00000000
