10
Lattice="16.290000149 0.0 0.0 0.0 16.290000149 0.0 0.0 0.0 29.1751946751" Properties=species:S:1:pos:R:3:initial_magmoms:R:1 pbc="T T T"
Si       1.37859013       1.36376623       1.30503563       0.00000000
Si      -1.31703022       1.39152439      -1.34165050       0.00000000
Si       1.32732550      -1.35897697      -1.36621602       0.00000000
Si      -1.37068948      -1.35806473       1.33814948       0.00000000
Si      -2.62907570       0.03147228      -2.68705585       0.00000000
Si      -0.00710244       2.67799457       2.66319930       0.00000000
Si       2.73841419       0.04554684      -2.62382445       0.00000000
Si       2.70774011      -0.00320913       2.68087946       0.00000000
Si      -0.09228285      -2.78818014      -2.60204517       0.00000000
Si      -0.00804726      -2.72362286       2.67396494       0.00000000
