10
Lattice="16.290000149 0.0 0.0 0.0 16.290000149 0.0 0.0 0.0 29.1751946751" Properties=species:S:1:pos:R:3:initial_magmoms:R:1 pbc="T T T"
H        0.11587077       1.18864873       1.19805019       0.00000000
Si      -1.23325075      -1.31949001       1.52513330       0.00000000
Si      -1.18809487       1.50645034      -1.39159844       0.00000000
Si       1.45549359      -1.28075239      -1.38681370       0.00000000
Si       1.89315866       1.02253960       1.21301707       0.00000000
H       -3.04956948      -0.78408658      -1.55999766       0.00000000
Si      -2.19282950       0.46151199       2.78529749       0.00000000
Si      -2.43783110       0.02221956      -2.66958866       0.00000000
Si      -2.45231291       2.90795399      -0.00495978       0.00000000
Si       3.51562638      -0.68564611       1.28300836       0.00000000
