10
Lattice="16.290000149 0.0 0.0 0.0 16.290000149 0.0 0.0 0.0 29.1751946751" Properties=species:S:1:pos:R:3:initial_magmoms:R:1 pbc="T T T"
Si       1.82146637      -0.88624117       1.14667268       0.00000000
Si      -0.87521284       1.78188167       1.28365022       0.00000000
Si       1.12111039       1.44072019      -1.55153685       0.00000000
Si      -1.02856690      -2.14948181      -0.39316492       0.00000000
H       -1.92588527      -0.57770857      -1.88212098       0.00000000
Si       2.60659550       2.45298080      -0.08081529       0.00000000
Si      -0.04738761      -2.55192789      -2.54296832       0.00000000
Si      -1.95387149       0.61535476       2.99057415       0.00000000
Si       0.99764848       3.24397434       1.44253833       0.00000000
H        3.20057778      -0.62625277      -1.75949764       0.00000000
