10
Lattice="16.290000149 0.0 0.0 0.0 16.290000149 0.0 0.0 0.0 29.1751946751" Properties=species:S:1:pos:R:3:initial_magmoms:R:1 pbc="T T T"
Si       0.47239371      -0.38885859       2.21766490       0.00000000
Si       1.80714746       1.32936175      -0.63610677       0.00000000
Si      -1.62246772       1.70818571      -0.06999129       0.00000000
Si      -0.67478068      -1.85588714      -1.29838369       0.00000000
H        1.83793556       0.17580168       2.47959980       0.00000000
Si      -2.06013279      -0.59510629      -2.66982206       0.00000000
Si       0.78345127       2.16507134      -2.58886090       0.00000000
Si       3.64218339      -0.11793960      -0.80888227       0.00000000
H        2.74401794      -1.58066758       2.03424045       0.00000000
Si      -0.75256543       3.43650585      -1.39116081       0.00000000
