10
Lattice="16.290000149 0.0 0.0 0.0 16.290000149 0.0 0.0 0.0 29.1751946751" Properties=species:S:1:pos:R:3:initial_magmoms:R:1 pbc="T T T"
Si      -1.37121076       1.35653347       1.33289794       0.00000000
Si      -1.37311669      -1.34742736      -1.34348854       0.00000000
Si       1.34991973       1.36485766      -1.35661738       0.00000000
Si       1.36866952      -1.34470693       1.36420293       0.00000000
Si      -0.00399105       2.71495658       2.66197394       0.00000000
Si      -0.01337409      -2.70478185      -2.68330100       0.00000000
Si       2.71857296      -2.69366718      -0.01003627       0.00000000
Si       2.72077211       0.01930365      -2.69564211       0.00000000
Si      -2.70313004       0.02262681      -2.71603557       0.00000000
Si      -2.71772588      -2.70265275       0.02205645       0.00000000
