10
Lattice="16.290000149 0.0 0.0 0.0 16.290000149 0.0 0.0 0.0 29.1751946751" Properties=species:S:1:pos:R:3:initial_magmoms:R:1 pbc="T T T"
Si      -1.40288390       1.17081118      -1.46083117       0.00000000
Si      -1.45882376      -1.17913537       1.41715299       0.00000000
Si       1.46092093      -1.28199043      -1.34290504       0.00000000
Si       1.22048379       1.48931326       1.39865008       0.00000000
H       -2.30381865       1.91192474      -0.48197422       0.00000000
Si       2.65316324       0.41010075      -2.53103566       0.00000000
Si      -0.07089946      -2.53983908       2.77348445       0.00000000
Si      -2.85407856      -2.50110146       0.05225277       0.00000000
Si       2.60601998       0.14947704       2.77078866       0.00000000
Si      -0.25070848       2.81053002      -2.64201810       0.00000000
