10
Lattice="16.290000149 0.0 0.0 0.0 16.290000149 0.0 0.0 0.0 29.1751946751" Properties=species:S:1:pos:R:3:initial_magmoms:R:1 pbc="T T T"
Si       1.34025976       1.36254448       1.36551581       0.00000000
Si      -1.35091179       1.35909100      -1.36003087       0.00000000
Si      -1.35891833      -1.35189082       1.36221901       0.00000000
Si       1.36875097      -1.35369901      -1.35180347       0.00000000
Si      -2.68141859       2.70839171       0.03124663       0.00000000
Si       2.70625772       0.00544086       2.69505861       0.00000000
Si       0.00869886      -2.70803333      -2.70564920       0.00000000
Si       2.70756092       2.70622514       0.02132707       0.00000000
Si      -2.71073747      -2.70441695       0.00064185       0.00000000
Si       2.71704170      -2.71428869       0.01403327       0.00000000
