10
Lattice="16.290000149 0.0 0.0 0.0 16.290000149 0.0 0.0 0.0 29.1751946751" Properties=species:S:1:pos:R:3:initial_magmoms:R:1 pbc="T T T"
H        1.36554184       0.56466028       0.26193490       0.00000000
Si      -0.47239371       0.38885859      -2.21766490       0.00000000
Si      -1.34565175       1.35207001       1.33750762       0.00000000
Si      -0.46550304      -2.20672487       0.60310962       0.00000000
H        2.27162423      -1.19180899      -0.18342445       0.00000000
H        2.94927195      -0.26441928       1.43448597       0.00000000
Si       0.61268320      -2.11838420       2.70130210       0.00000000
Si       1.33475374       1.71822035      -2.85377167       0.00000000
Si      -2.77541692      -2.02289222       1.19784597       0.00000000
Si      -2.54321926      -0.17301609       2.63892553       0.00000000
