10
Lattice="16.290000149 0.0 0.0 0.0 16.290000149 0.0 0.0 0.0 29.1751946751" Properties=species:S:1:pos:R:3:initial_magmoms:R:1 pbc="T T T"
Si       1.34567456      -1.36111096       1.35559625       0.00000000
Si      -1.31413158      -1.38391696      -1.36399870       0.00000000
Si      -1.37988682       1.34832331       1.34115452       0.00000000
Si       1.32456272       1.38365632      -1.36192726       0.00000000
Si      -2.63104028       0.05114246      -2.64012172       0.00000000
Si       2.68060749      -0.01150889      -2.65144169       0.00000000
Si      -0.01006885       2.71811684       2.66626269       0.00000000
Si       2.66317719      -2.73140949      -0.03401828       0.00000000
Si       2.70255012       0.00171534       2.70573673       0.00000000
Si      -0.03008437      -2.70923879       2.70646611       0.00000000
