10
Lattice="16.290000149 0.0 0.0 0.0 16.290000149 0.0 0.0 0.0 29.1751946751" Properties=species:S:1:pos:R:3:initial_magmoms:R:1 pbc="T T T"
Si       1.31911534      -1.44106228       1.27691075       0.00000000
Si      -1.34939845      -1.36184401      -1.34742719       0.00000000
Si       1.38561112       1.35881407      -1.31749344       0.00000000
Si      -1.29160153       1.36762696       1.41190437       0.00000000
Si       2.74453923      -0.05132979       2.45722242       0.00000000
Si       0.01725111       2.70179426      -2.66932609       0.00000000
Si      -2.66501144       2.72008793       0.06640274       0.00000000
Si      -2.71539641      -0.00474039      -2.67696999       0.00000000
Si      -0.06659352      -2.77575087       2.61663568       0.00000000
Si       0.02580336      -2.72588717      -2.68082111       0.00000000
