10
Lattice="16.290000149 0.0 0.0 0.0 16.290000149 0.0 0.0 0.0 29.1751946751" Properties=species:S:1:pos:R:3:initial_magmoms:R:1 pbc="T T T"
Si      -1.39258324      -1.34333857      -1.32957197       0.00000000
Si      -1.35909100       1.35560494       1.35419584       0.00000000
Si       1.33001335      -1.37005417       1.37254703       0.00000000
Si       1.36031275       1.34443000      -1.37245951       0.00000000
Si      -0.03653847      -2.73850378      -2.61908640       0.00000000
Si       2.70718625       2.70138701      -0.00980287       0.00000000
Si      -2.70213473       2.71349048      -0.00956946       0.00000000
Si       2.68975595      -2.72740866       0.03273457       0.00000000
Si       2.70313004      -0.02262681       2.71603557       0.00000000
Si      -0.01117494       2.71726976       2.70529910       0.00000000
