10
Lattice="16.290000149 0.0 0.0 0.0 16.290000149 0.0 0.0 0.0 29.1751946751" Properties=species:S:1:pos:R:3:initial_magmoms:R:1 pbc="T T T"
Si       0.61688602      -1.30158893       0.44425069       0.00000000
Si      -1.50270527       1.47378889       0.63523151       0.00000000
H        2.02852856       0.35917821      -1.40554418       0.00000000
Si       1.12045879       1.25410195      -2.21690634       0.00000000
Si      -0.02425581       2.67926519      -0.75260332       0.00000000
Si      -2.82196755      -0.22250511      -0.50636468       0.00000000
Si      -1.61522356      -1.50308972      -2.11703965       0.00000000
Si      -0.24071733      -2.94831084      -0.96044741       0.00000000
Si      -0.21061341       1.62961904       2.66095281       0.00000000
Si       2.92584693      -1.21259503       0.08341188       0.00000000
