10
Lattice="16.290000149 0.0 0.0 0.0 16.290000149 0.0 0.0 0.0 29.1751946751" Properties=species:S:1:pos:R:3:initial_magmoms:R:1 pbc="T T T"
Si      -1.74689075      -0.32339886       1.49172770       0.00000000
Si       0.11598480      -2.30527937      -0.23392671       0.00000000
Si      -0.98168428       0.85803503      -1.98843539       0.00000000
Si       1.83050732       1.19089675       1.00569814       0.00000000
H       -0.41733351       2.66188376       1.49697924       0.00000000
Si      -2.50289336       2.17513856      -0.79131881       0.00000000
Si       1.69769495      -2.23008473      -2.04302218       0.00000000
Si      -1.06258042       3.50494014       0.41918920       0.00000000
Si       0.40464360      -3.19617948       2.00643649       0.00000000
Si      -3.66529890       0.73620864       0.71350856       0.00000000
