10
Lattice="16.290000149 0.0 0.0 0.0 16.290000149 0.0 0.0 0.0 29.1751946751" Properties=species:S:1:pos:R:3:initial_magmoms:R:1 pbc="T T T"
Si       2.06094566      -0.73604085       0.84158767       0.00000000
Si       0.72079993       0.56731880      -2.16707511       0.00000000
Si      -1.26545119      -1.98669095      -0.08198230       0.00000000
Si      -0.62143093       1.50976210       1.75290405       0.00000000
H        0.65686168       1.54924906       2.57739505       0.00000000
H        0.10391391       1.86890773      -2.61132580       0.00000000
Si      -0.10669950       3.49852677       0.04962701       0.00000000
Si       3.09079947      -1.41031817      -1.23638640       0.00000000
Si       1.27498573      -2.23143191       2.55288788       0.00000000
Si       2.97168699       1.34707387       1.65079087       0.00000000
