10
Lattice="16.28999089631971 0.0 0.0 0.0 16.28999089631971 0.0 0.0 0.0 34.40785480372833" Properties=species:S:1:pos:R:3:initial_magmoms:R:1 pbc="T T T"
Si      -2.09284146      -0.63389277      -0.85720337       0.00000000
Si       1.06510536      -2.05252371       0.53648757       0.00000000
Si       0.96233175       1.40076081      -1.67869136       0.00000000
Si       0.20940795       1.04102874       2.17275402       0.00000000
Si       3.30235767      -1.32183576       0.56112361       0.00000000
Si      -0.08304642      -2.65704887       2.57849167       0.00000000
Si       2.48660334       1.71774792       2.29142678       0.00000000
Si       0.30574701       3.63164373      -1.12785570       0.00000000
Si      -0.23721498      -0.62955963       3.82694697       0.00000000
Si      -3.90749859       0.54700191      -0.03148320       0.00000000
