10
Lattice="16.28999089631971 0.0 0.0 0.0 16.28999089631971 0.0 0.0 0.0 34.40785480372833" Properties=species:S:1:pos:R:3:initial_magmoms:R:1 pbc="T T T"
Si      -1.31657409      -0.24424413       1.93915896       0.00000000
Si       0.34867116      -2.20929054      -0.80156583       0.00000000
Si       2.06268867       0.99653651       0.73161463       0.00000000
Si      -0.86649768       0.97742834      -2.02734635       0.00000000
Si       2.59387299      -2.20158537      -1.58582451       0.00000000
Si      -2.17386792       1.86593707       2.49811488       0.00000000
Si       3.21084045       1.60106167      -1.31038947       0.00000000
Si      -0.67078962      -0.65527341      -3.77038043       0.00000000
Si       0.03370401      -3.83371305       0.88135769       0.00000000
Si      -1.00113453      -2.76938961      -2.69829989       0.00000000
