10
Lattice="16.28999089631971 0.0 0.0 0.0 16.28999089631971 0.0 0.0 0.0 34.40785480372833" Properties=species:S:1:pos:R:3:initial_magmoms:R:1 pbc="T T T"
Si      -1.69131644       1.00628217      -1.34204472       0.00000000
Si       1.01213028      -1.70411482      -1.34379952       0.00000000
Si      -1.83227381      -1.17724572       1.17145048       0.00000000
Si       2.07586728       2.01736989       0.00271822       0.00000000
Si      -0.67330547      -1.08483255       3.25594830       0.00000000
Si      -0.35905908       2.35357920      -2.71261357       0.00000000
Si       2.36713248      -0.37385550      -2.71553823       0.00000000
Si      -3.04322354       2.37399057       0.11526638       0.00000000
Si       2.48051088      -2.99365305      -0.02356939       0.00000000
Si       1.20026349       0.33935328       3.77299543       0.00000000
