10
Lattice="16.28999089631971 0.0 0.0 0.0 16.28999089631971 0.0 0.0 0.0 34.40785480372833" Properties=species:S:1:pos:R:3:initial_magmoms:R:1 pbc="T T T"
Si      -0.46923345       2.21623821       0.47861353       0.00000000
Si       0.40215123      -0.99460224       2.06092843       0.00000000
Si      -1.94750208      -1.19291670      -0.57382012       0.00000000
Si       2.13488595      -0.03482802      -1.09186507       0.00000000
Si       1.57630185       2.55995721       1.65133710       0.00000000
Si      -0.85403583       3.06118422      -1.66926360       0.00000000
Si       1.25678979       0.82585413       3.31929320       0.00000000
Si      -1.83560607      -1.28811546       2.87281663       0.00000000
Si      -1.09020825      -3.30309791      -1.13277603       0.00000000
Si       1.75009986      -2.88853954       1.52048395       0.00000000
