10
Lattice="16.28999089631971 0.0 0.0 0.0 16.28999089631971 0.0 0.0 0.0 34.40785480372833" Properties=species:S:1:pos:R:3:initial_magmoms:R:1 pbc="T T T"
Si       0.78713280      -0.91022167      -2.07644638       0.00000000
Si      -0.51266259      -2.17832228       0.95179061       0.00000000
Si      -0.53598987       2.26134522      -0.93152437       0.00000000
Si       1.61782506       1.58231286       1.11244098       0.00000000
Si      -2.28511233       1.45692873       0.35711932       0.00000000
Si       1.36257705      -2.52357254       2.34214399       0.00000000
Si       0.18627615       3.54685428       1.32484078       0.00000000
Si      -2.11582665      -1.69725673       2.67225313       0.00000000
Si       1.68394617       0.79697196      -3.37771777       0.00000000
Si      -1.03099410       0.07434756       3.88179312       0.00000000
