10
Lattice="16.28999089631971 0.0 0.0 0.0 16.28999089631971 0.0 0.0 0.0 34.40785480372833" Properties=species:S:1:pos:R:3:initial_magmoms:R:1 pbc="T T T"
Si      -1.35764118      -1.35741312       1.35573905       0.00000000
Si       1.35804843       1.35759231       1.35632399       0.00000000
Si       1.35423657      -1.35290079      -1.36502918       0.00000000
Si      -1.35821133       1.35399222      -1.36544207       0.00000000
Si      -2.68995141      -0.02981070      -2.70532598       0.00000000
Si      -2.71466334      -0.00027693       2.71337054       0.00000000
Si       0.00035838       2.71502172       2.71374902       0.00000000
Si       2.71534752       0.00030951       2.71378343       0.00000000
Si       0.00029322      -2.71634121       2.71326731       0.00000000
Si      -2.71521720       2.71554300       0.00006882       0.00000000
