10
Lattice="16.28999089631971 0.0 0.0 0.0 16.28999089631971 0.0 0.0 0.0 34.40785480372833" Properties=species:S:1:pos:R:3:initial_magmoms:R:1 pbc="T T T"
Si       0.22806000       1.17962406       2.00467156       0.00000000
Si      -1.92894777      -0.92274705      -1.18314916       0.00000000
Si      -1.05542910      -1.79634717       1.29848435       0.00000000
Si       0.95842215       1.99370052      -1.15992384       0.00000000
Si       2.00471256      -1.49369526       0.13116282       0.00000000
Si      -0.29273130      -1.96651251      -2.53878499       0.00000000
Si       2.83773429       1.29717270       1.61975067       0.00000000
Si       2.43752157       0.77022378      -2.53469045       0.00000000
Si      -0.33316308      -0.51083811       3.55484951       0.00000000
Si       1.16450694      -3.26072043      -1.14770905       0.00000000
