10
Lattice="16.28999089631971 0.0 0.0 0.0 16.28999089631971 0.0 0.0 0.0 34.40785480372833" Properties=species:S:1:pos:R:3:initial_magmoms:R:1 pbc="T T T"
Si      -1.00592379      -0.33606270      -2.21431873       0.00000000
Si      -1.91225052      -1.31774697       0.99696815       0.00000000
Si      -0.17290206       2.45480526      -0.72573088       0.00000000
Si       1.61135793       0.28598724       2.47148318       0.00000000
Si       2.04247278       1.98591390      -1.84426205       0.00000000
Si       0.77454063       0.59165280      -3.45547957       0.00000000
Si      -3.34379943       0.64679445       1.20936796       0.00000000
Si      -2.78257635       2.33725662      -0.34080999       0.00000000
Si      -3.01063635       1.15763256      -2.34548155       0.00000000
Si      -1.44381528      -1.74866634       3.29297118       0.00000000
