10
Lattice="16.28999089631971 0.0 0.0 0.0 16.28999089631971 0.0 0.0 0.0 34.40785480372833" Properties=species:S:1:pos:R:3:initial_magmoms:R:1 pbc="T T T"
Si      -0.85180410       0.59056137       2.06908310       0.00000000
Si       1.81465713      -1.18089468      -0.82572016       0.00000000
Si       0.28670400       2.18789361      -0.79540682       0.00000000
Si      -1.30259727      -2.25794061      -0.35237104       0.00000000
Si      -0.08532702       1.21456611      -2.90932338       0.00000000
Si      -2.37653181       0.81298503      -2.17175619       0.00000000
Si       0.89526582      -3.22315895      -0.14898609       0.00000000
Si       1.34622189      -0.74997531      -3.12172319       0.00000000
Si      -2.68832241       1.95655932       1.48211917       0.00000000
Si      -1.56599028       3.39322329      -0.01145782       0.00000000
