10
Lattice="16.28999089631971 0.0 0.0 0.0 16.28999089631971 0.0 0.0 0.0 34.40785480372833" Properties=species:S:1:pos:R:3:initial_magmoms:R:1 pbc="T T T"
Si      -0.04178385       2.10215934       0.99387144       0.00000000
Si      -2.04553530      -0.34371900      -1.17272357       0.00000000
Si      -0.31951206      -1.73410308       1.66795610       0.00000000
Si       2.15241399       0.60496173      -0.97821586       0.00000000
Si      -1.57630185      -2.55995721      -1.65133710       0.00000000
Si       3.38372622       0.88021386       1.00608624       0.00000000
Si      -0.57886515       3.53929572      -0.88139210       0.00000000
Si       1.95129765       2.17090314       2.32167130       0.00000000
Si      -1.17415062      -3.55455945       0.40959133       0.00000000
Si       0.55858410      -2.59478523      -2.74320217       0.00000000
