10
Lattice="16.28999089631971 0.0 0.0 0.0 16.28999089631971 0.0 0.0 0.0 34.40785480372833" Properties=species:S:1:pos:R:3:initial_magmoms:R:1 pbc="T T T"
Si      -1.35659862       1.35627282      -1.36241418       0.00000000
Si       1.36122498      -1.36207206      -1.36148517       0.00000000
Si       1.34221455       1.38269520       1.37617733       0.00000000
Si      -1.37256282      -1.36221867       1.38126970       0.00000000
Si       2.53053747      -0.11684817       2.74306453       0.00000000
Si      -2.71103067       2.70954828      -0.00581493       0.00000000
Si      -2.71221984      -2.71464705       0.00120428       0.00000000
Si       2.71619460       2.71469592      -0.00116987       0.00000000
Si       0.00203625       2.71238274      -2.71901343       0.00000000
Si      -2.71267596      -0.00193851      -2.71884139       0.00000000
