10
Lattice="16.28999089631971 0.0 0.0 0.0 16.28999089631971 0.0 0.0 0.0 34.40785480372833" Properties=species:S:1:pos:R:3:initial_magmoms:R:1 pbc="T T T"
Si      -1.26679185      -1.40309028      -1.42985361       0.00000000
Si       1.37626065       1.32592455      -1.41980651       0.00000000
Si      -1.28135511       1.52029683       1.38883943       0.00000000
Si       0.61252029      -2.09961810       1.34982090       0.00000000
Si       0.95778684      -0.63578241       3.16315027       0.00000000
Si       2.71661814       0.60496173       1.93661278       0.00000000
Si      -1.99715400      -2.21716674       1.73474179       0.00000000
Si      -2.75576301      -0.06041961       2.34124938       0.00000000
Si      -2.52683964       0.08055405      -2.78160135       0.00000000
Si       2.82789513      -2.56850946       0.23128973       0.00000000
