10
Lattice="16.28999089631971 0.0 0.0 0.0 16.28999089631971 0.0 0.0 0.0 34.40785480372833" Properties=species:S:1:pos:R:3:initial_magmoms:R:1 pbc="T T T"
Si       1.96234227       0.75135509      -1.32308598       0.00000000
Si      -1.75606200       1.74583744      -0.26119017       0.00000000
Si      -0.93923253      -1.86158862      -1.39998758       0.00000000
Si       0.57697551      -0.65461365       2.43408182       0.00000000
Si       0.43551315       2.05278502      -2.93227343       0.00000000
Si      -2.29961043      -0.67383585      -2.95260849       0.00000000
Si      -0.85924863       3.45303107      -1.56246156       0.00000000
Si      -2.41730568      -3.13395165       0.03072623       0.00000000
Si       3.75165216       1.09700348       0.68447584       0.00000000
Si      -3.54805974       0.77998151      -1.62418929       0.00000000
