10
Lattice="16.28999089631971 0.0 0.0 0.0 16.28999089631971 0.0 0.0 0.0 34.40785480372833" Properties=species:S:1:pos:R:3:initial_magmoms:R:1 pbc="T T T"
Si      -0.31496715      -1.62442251       1.68292353       0.00000000
Si      -0.34867116       2.20929054       0.80156583       0.00000000
Si       2.24520183       0.00770517      -0.78425867       0.00000000
Si      -1.34980569      -0.56009907      -1.89673406       0.00000000
Si      -1.01946078       1.55401713      -2.96881460       0.00000000
Si      -1.21516884       3.18671889      -1.22578051       0.00000000
Si       2.21252409      -2.02675293      -2.04024930       0.00000000
Si       0.08052147      -2.01057696      -3.10648050       0.00000000
Si      -1.66524525       1.96504641       2.74072480       0.00000000
Si       0.74186289      -3.65023062       0.90582169       0.00000000
