10
Lattice="16.28999089631971 0.0 0.0 0.0 16.28999089631971 0.0 0.0 0.0 34.40785480372833" Properties=species:S:1:pos:R:3:initial_magmoms:R:1 pbc="T T T"
Si      -0.93882528      -2.18667675      -0.51329666       0.00000000
Si       1.81183896       0.95775426      -1.40425416       0.00000000
Si       1.28446650       0.58101543       2.06512619       0.00000000
Si      -0.03067407       0.27649017      -2.75510729       0.00000000
Si       3.40444710       1.33418358       1.18366527       0.00000000
Si       0.88319493      -3.65644430      -1.26579687       0.00000000
Si       0.27689742       2.47629177       3.18716696       0.00000000
Si       1.30121262      -1.23984167       3.66123865       0.00000000
Si       3.73866903      -0.68729139      -1.62694192       0.00000000
Si      -1.81398924      -3.39298613       1.59163944       0.00000000
