10
Lattice="16.28999089631971 0.0 0.0 0.0 16.28999089631971 0.0 0.0 0.0 34.40785480372833" Properties=species:S:1:pos:R:3:initial_magmoms:R:1 pbc="T T T"
Si       2.23725231       0.73068795       0.02463604       0.00000000
Si      -1.06510536       2.05252371      -0.53648757       0.00000000
Si       0.34433802      -1.94948036      -1.35088754       0.00000000
Si      -1.14815178      -0.60452516       2.04200410       0.00000000
Si       2.97312048      -0.22605307       1.96069829       0.00000000
Si      -0.85569741       3.09355245       1.63626645       0.00000000
Si      -3.15794682       1.41863094      -1.39369094       0.00000000
Si       3.29067774      -0.34498310      -1.75837999       0.00000000
Si      -1.30232034       1.42296408       3.29045940       0.00000000
Si      -3.21084045      -1.60106167       1.31038947       0.00000000
