10
Lattice="16.28999089631971 0.0 0.0 0.0 16.28999089631971 0.0 0.0 0.0 34.40785480372833" Properties=species:S:1:pos:R:3:initial_magmoms:R:1 pbc="T T T"
Si      -0.73586817       0.95674102      -1.93606226       0.00000000
Si      -1.12666527      -0.25298859       2.00983274       0.00000000
Si       2.11278042       1.02149377       0.38430155       0.00000000
Si      -0.00068418      -2.35116243      -0.37845221       0.00000000
Si       2.20507956      -1.85407308      -1.44612854       0.00000000
Si       0.86398902      -1.08998182       3.04733336       0.00000000
Si      -2.97312048       0.22605307      -1.96069829       0.00000000
Si       2.90815596      -0.35866019       2.09540512       0.00000000
Si       0.31755726      -0.11893003      -3.71907829       0.00000000
Si      -0.11614770       3.24191851      -1.92577430       0.00000000
