10
Lattice="16.28999089631971 0.0 0.0 0.0 16.28999089631971 0.0 0.0 0.0 34.40785480372833" Properties=species:S:1:pos:R:3:initial_magmoms:R:1 pbc="T T T"
Si       0.24801525      -2.30711053      -0.18552726       0.00000000
Si       2.06358462       1.18690455       0.00347520       0.00000000
Si      -0.93102237       1.06142105      -1.92505174       0.00000000
Si      -1.46997702       0.23519877       1.93575259       0.00000000
Si       0.92276334       3.05331664       0.76657303       0.00000000
Si      -1.08519093       3.08891029      -0.67659643       0.00000000
Si       1.11280248      -2.27172865      -2.37882278       0.00000000
Si      -3.19168341      -1.20688393       1.14285754       0.00000000
Si      -1.95927975      -3.08888392       0.24061426       0.00000000
Si       2.06226513      -2.81174215       1.29507797       0.00000000
