10
Lattice="16.28999089631971 0.0 0.0 0.0 16.28999089631971 0.0 0.0 0.0 34.40785480372833" Properties=species:S:1:pos:R:3:initial_magmoms:R:1 pbc="T T T"
Si       1.35759231      -1.35860229      -1.35845727       0.00000000
Si      -1.35842310       1.35674523      -1.35993681       0.00000000
Si       1.34654769       1.35272160       1.37875792       0.00000000
Si      -1.35645201      -1.35495333       1.38195785       0.00000000
Si       0.18085158      -2.56253103       2.75207940       0.00000000
Si      -2.71409319       2.71397916      -0.00712243       0.00000000
Si       2.71687878       2.71186146       0.00024086       0.00000000
Si      -0.00006516       2.71309950      -2.71729304       0.00000000
Si      -2.71464705      -0.00114030      -2.71743067       0.00000000
Si       2.71564074      -0.00096111      -2.71753389       0.00000000
