10
Lattice="16.28999089631971 0.0 0.0 0.0 16.28999089631971 0.0 0.0 0.0 34.40785480372833" Properties=species:S:1:pos:R:3:initial_magmoms:R:1 pbc="T T T"
Si       1.23859386      -0.91766457       1.76388525       0.00000000
Si      -1.45233495       1.94616630       0.06668246       0.00000000
Si      -1.34105796      -1.22730489      -1.63864059       0.00000000
Si       2.31039441       0.76947444      -0.62756521       0.00000000
Si       1.06686468       1.95408324      -2.22522603       0.00000000
Si      -0.00912240       0.07196922      -3.26716527       0.00000000
Si      -3.21116625       0.70542216       1.29321995       0.00000000
Si      -3.55643280      -0.75841353      -0.52010942       0.00000000
Si       1.21816620       0.69053310       3.54738300       0.00000000
Si      -0.81656883       3.53657529       1.64710493       0.00000000
