10
Lattice="16.28999089631971 0.0 0.0 0.0 16.28999089631971 0.0 0.0 0.0 34.40785480372833" Properties=species:S:1:pos:R:3:initial_magmoms:R:1 pbc="T T T"
Si      -1.96297758      -0.04632876       1.26882476       0.00000000
Si       1.50068367       1.24235685       1.37851707       0.00000000
Si       0.65658474      -2.23088292      -0.55083566       0.00000000
Si      -0.78240870       1.40177079      -1.93472035       0.00000000
Si      -2.70542691       2.16482697       1.33715880       0.00000000
Si      -0.30574701      -3.63164373       1.12785570       0.00000000
Si      -1.46541582      -0.67328199       3.47492001       0.00000000
Si       3.02572089      -2.31301710      -0.56810841       0.00000000
Si      -2.76183918       2.54244546      -1.09258763       0.00000000
Si      -1.12767525      -0.06206490      -3.74804972       0.00000000
