10
Lattice="16.28999089631971 0.0 0.0 0.0 16.28999089631971 0.0 0.0 0.0 34.40785480372833" Properties=species:S:1:pos:R:3:initial_magmoms:R:1 pbc="T T T"
Si      -1.36907676       1.91733300       0.17431029       0.00000000
Si       2.27719539       0.67671918       0.11867276       0.00000000
Si      -0.44662293      -1.67058837       1.65419295       0.00000000
Si      -0.20940795      -1.04102874      -2.17275402       0.00000000
Si       0.85569741      -3.09355245      -1.63626645       0.00000000
Si       2.73497697       0.14687064       2.35298247       0.00000000
Si      -0.29245437      -3.69807761       0.40573765       0.00000000
Si      -1.86663852       2.54428623      -2.03178496       0.00000000
Si       2.31252840       3.01099473       0.17011253       0.00000000
Si       1.56133134      -1.70618202       3.09736241       0.00000000
