10
Lattice="16.28999089631971 0.0 0.0 0.0 16.28999089631971 0.0 0.0 0.0 34.40785480372833" Properties=species:S:1:pos:R:3:initial_magmoms:R:1 pbc="T T T"
Si      -1.87998003      -0.76064526      -1.21404743       0.00000000
Si       1.97957709      -1.47369114      -0.14953662       0.00000000
Si       0.94486887       2.02458636      -1.09124572       0.00000000
Si      -0.53962254      -1.48160808       2.14237187       0.00000000
Si      -0.36911511      -1.99949976      -2.60639646       0.00000000
Si       2.37092805       0.74117871      -2.59655581       0.00000000
Si       0.90359001      -3.35580516      -1.19147586       0.00000000
Si       0.09614358       0.10880091       3.72279434       0.00000000
Si      -3.25624068      -2.08656981       0.20575909       0.00000000
Si       3.77045082      -0.60253452      -1.32721493       0.00000000
