10
Lattice="16.28999089631971 0.0 0.0 0.0 16.28999089631971 0.0 0.0 0.0 34.40785480372833" Properties=species:S:1:pos:R:3:initial_magmoms:R:1 pbc="T T T"
Si       1.50247557      -0.53579439      -1.71375298       0.00000000
Si       0.59013783      -1.38057750       1.81116167       0.00000000
Si      -2.13200262       0.01617597      -1.06623120       0.00000000
Si       0.03267774       2.03445810       1.25599063       0.00000000
Si       2.47119300       1.58781888      -1.97002283       0.00000000
Si       2.48992650      -0.15607449       2.56655214       0.00000000
Si      -2.21252409       2.02675293       2.04024930       0.00000000
Si      -1.47066120      -1.62347769       2.94607099       0.00000000
Si       3.59440479       0.71086302       0.62790929       0.00000000
Si       3.54103875      -1.19316105      -0.81102800       0.00000000
