10
Lattice="16.28999089631971 0.0 0.0 0.0 16.28999089631971 0.0 0.0 0.0 34.40785480372833" Properties=species:S:1:pos:R:3:initial_magmoms:R:1 pbc="T T T"
Si       1.46574162       1.16766720       1.45612888       0.00000000
Si      -0.48938418       1.60783929      -1.75431987       0.00000000
Si       0.44057934      -0.55726461      -2.37483147       0.00000000
Si      -1.36142046      -1.53686376       1.39974470       0.00000000
Si       1.21821507      -2.78871768      -1.95216514       0.00000000
Si      -2.96963442      -0.83540007      -1.91844542       0.00000000
Si      -2.80192887       1.57832181      -1.87533236       0.00000000
Si      -0.05528826       2.36890809       2.89572336       0.00000000
Si       2.86233219       2.48987763      -0.15125701       0.00000000
Si      -2.67607233      -2.74766688      -0.22402967       0.00000000
