10
Lattice="16.28999089631971 0.0 0.0 0.0 16.28999089631971 0.0 0.0 0.0 34.40785480372833" Properties=species:S:1:pos:R:3:initial_magmoms:R:1 pbc="T T T"
Si      -2.25851076       0.69432867      -0.36059452       0.00000000
Si       0.34191081      -2.48243310       0.08677666       0.00000000
Si       0.68782896       2.29882592      -0.76808697       0.00000000
Si       0.36958752       0.06659352       2.57253911       0.00000000
Si       2.57535126       0.56368287       1.50486278       0.00000000
Si      -0.78130098      -1.60547724      -2.51115546       0.00000000
Si      -1.70717571      -1.29386583       2.57852608       0.00000000
Si      -3.21981624      -1.15883802       0.71485799       0.00000000
Si      -0.36559647       3.37449698       1.01492906       0.00000000
Si       2.90440926       2.33027377      -0.09493132       0.00000000
