10
Lattice="16.28999089631971 0.0 0.0 0.0 16.28999089631971 0.0 0.0 0.0 34.40785480372833" Properties=species:S:1:pos:R:3:initial_magmoms:R:1 pbc="T T T"
Si      -0.24801525       2.30711053       0.18552726       0.00000000
Si       0.86478723       0.03538188      -2.19329552       0.00000000
Si      -2.20729500      -0.78177339       0.42614152       0.00000000
Si       1.81424988      -0.50463162       1.48060523       0.00000000
Si       3.57285312       0.56488833       0.10625152       0.00000000
Si       0.27919431      -2.37394170       2.81074482       0.00000000
Si      -1.88871147      -2.54949903       1.95092646       0.00000000
Si      -1.71799227       2.54230929       2.12127984       0.00000000
Si      -3.43969866       1.10022660       1.32838479       0.00000000
Si       1.80939546      -2.02012290      -2.74640210       0.00000000
