10
Lattice="16.28999089631971 0.0 0.0 0.0 16.28999089631971 0.0 0.0 0.0 34.40785480372833" Properties=species:S:1:pos:R:3:initial_magmoms:R:1 pbc="T T T"
Si      -0.83222352      -2.16207463      -0.25007643       0.00000000
Si       2.16354725      -0.41293032       0.83907042       0.00000000
Si      -1.25915184       0.70355370       1.88372788       0.00000000
Si       0.12069261       1.31706931      -1.99311051       0.00000000
Si      -0.52719327      -2.53988860       2.04107509       0.00000000
Si       1.76682710      -2.17748497       2.40414697       0.00000000
Si       1.99426157       2.74125514      -1.47606339       0.00000000
Si      -3.47573214       0.67210585       1.21057223       0.00000000
Si      -1.37249766       3.24613111      -1.26700115       0.00000000
Si       0.85329856      -3.44833303      -1.32835038       0.00000000
