10
Lattice="16.28999089631971 0.0 0.0 0.0 16.28999089631971 0.0 0.0 0.0 34.40785480372833" Properties=species:S:1:pos:R:3:initial_magmoms:R:1 pbc="T T T"
Si      -0.71588034      -1.90619064       1.27887186       0.00000000
Si      -1.39269726       1.32779790      -1.44530275       0.00000000
Si       1.35190710      -1.36770840      -1.45731110       0.00000000
Si       0.90792315       1.69531659       1.47327635       0.00000000
Si      -2.55839337      -2.58745473      -0.07198127       0.00000000
Si       3.04322354      -2.37399057      -0.11526638       0.00000000
Si       0.77004459       0.87040728       3.70610652       0.00000000
Si       1.21094973      -3.55123629       1.05618410       0.00000000
Si      -0.02236617       2.68693776      -2.82381981       0.00000000
Si       2.68416446      -0.02041137      -2.82787994       0.00000000
