10
Lattice="16.28999089631971 0.0 0.0 0.0 16.28999089631971 0.0 0.0 0.0 34.40785480372833" Properties=species:S:1:pos:R:3:initial_magmoms:R:1 pbc="T T T"
Si      -0.13787856      -0.82490931       2.23283017       0.00000000
Si      -0.90792315      -1.69531659      -1.47327635       0.00000000
Si       1.73371212       1.17685476      -1.25516484       0.00000000
Si      -1.44531396       1.69587045       1.10961953       0.00000000
Si       2.02477599      -0.45295974       3.05689875       0.00000000
Si      -2.30062041      -0.36751869      -2.91857910       0.00000000
Si       0.43220628       2.33745210      -2.93285837       0.00000000
Si      -1.62380349      -3.60150723      -0.19440449       0.00000000
Si      -2.68884369       2.88047925      -0.48804129       0.00000000
Si       2.62275583       3.02818068       0.09758073       0.00000000
