10
Lattice="16.28999089631971 0.0 0.0 0.0 16.28999089631971 0.0 0.0 0.0 34.40785480372833" Properties=species:S:1:pos:R:3:initial_magmoms:R:1 pbc="T T T"
Si      -1.08942633       0.59372163       2.01778096       0.00000000
Si       1.96079472       1.18933290      -0.70687536       0.00000000
Si       0.31964238      -2.37366477       0.39183687       0.00000000
Si      -1.75918968       0.65987532      -1.55365314       0.00000000
Si      -3.18992409      -0.30662667       1.59762641       0.00000000
Si      -1.78978230      -3.39530841      -0.17382858       0.00000000
Si       2.74887301       2.45180790       1.18098146       0.00000000
Si      -1.73876202      -0.94832235      -3.33715089       0.00000000
Si      -1.16017380       2.93728248       2.27959047       0.00000000
Si      -3.90542976       0.51535044      -0.49457878       0.00000000
