10
Lattice="16.28999089631971 0.0 0.0 0.0 16.28999089631971 0.0 0.0 0.0 34.40785480372833" Properties=species:S:1:pos:R:3:initial_magmoms:R:1 pbc="T T T"
Si      -2.02191480       0.83473218       0.86233014       0.00000000
Si      -0.42365403      -2.20854933       0.74960994       0.00000000
Si       1.64075228       1.35330804       1.17588910       0.00000000
Si       1.95254288       0.20973375      -2.47798627       0.00000000
Si      -1.53220482      -0.14395473       3.05851592       0.00000000
Si       1.68133067      -3.08925189       1.25836477       0.00000000
Si       0.46157130       1.79838342      -3.31082886       0.00000000
Si       3.47727059      -0.01268991       1.76285302       0.00000000
Si      -1.48105422      -3.51631216      -0.82348365       0.00000000
Si       2.76308441       2.78997201      -0.31768790       0.00000000
