10
Lattice="16.28999089631971 0.0 0.0 0.0 16.28999089631971 0.0 0.0 0.0 34.40785480372833" Properties=species:S:1:pos:R:3:initial_magmoms:R:1 pbc="T T T"
Si       1.35587439       1.35643572       1.35728741       0.00000000
Si      -1.35953082      -1.35848826       1.35649603       0.00000000
Si       1.35716292      -1.35863487      -1.36007444       0.00000000
Si      -1.35894438       1.35369900      -1.36330878       0.00000000
Si       2.70232271      -0.00418653      -2.71253099       0.00000000
Si       2.71230848      -2.71508688       0.00072257       0.00000000
Si       2.71307411      -0.00050499       2.71474685       0.00000000
Si       2.71400264       2.71384884       0.00024086       0.00000000
Si      -0.00210258       2.71401174       2.71471245       0.00000000
Si      -0.00328278      -2.71565703       2.71454041       0.00000000
