10
Lattice="16.28999089631971 0.0 0.0 0.0 16.28999089631971 0.0 0.0 0.0 34.40785480372833" Properties=species:S:1:pos:R:3:initial_magmoms:R:1 pbc="T T T"
Si      -1.79087373      -0.87115662       1.17767830       0.00000000
Si       1.33017624      -1.41418377      -1.26713878       0.00000000
Si      -1.39952277       1.34371323      -1.26934088       0.00000000
Si       1.74540834       1.00846503       1.27670417       0.00000000
Si      -0.54734400      -2.05576542       2.77533912       0.00000000
Si       2.63168208      -2.57478111       0.41055475       0.00000000
Si      -0.03707604       2.67146226      -2.63251203       0.00000000
Si       2.67911856      -0.04316850      -2.63378513       0.00000000
Si       0.84997962       1.66247595       3.27800375       0.00000000
Si      -2.74750398      -0.04342914      -2.62896802       0.00000000
