10
Lattice="16.28999089631971 0.0 0.0 0.0 16.28999089631971 0.0 0.0 0.0 34.40785480372833" Properties=species:S:1:pos:R:3:initial_magmoms:R:1 pbc="T T T"
Si       1.47054589      -1.26773667       1.29487152       0.00000000
Si       1.35950538       1.35424403      -1.36151958       0.00000000
Si      -1.35452979      -1.36287027      -1.36533885       0.00000000
Si      -1.29098250       1.36058967       1.47881602       0.00000000
Si      -2.70207117       2.70373505       0.01304058       0.00000000
Si      -2.71697652      -2.69061930      -0.00216770       0.00000000
Si       2.77357191       0.14462262       2.63158302       0.00000000
Si      -2.70746316      -0.00478926      -2.72451869       0.00000000
Si       0.00803097       2.71248930      -2.72396816       0.00000000
Si       0.00658116      -2.71999017      -2.72503481       0.00000000
