10
Lattice="16.28999089631971 0.0 0.0 0.0 16.28999089631971 0.0 0.0 0.0 34.40785480372833" Properties=species:S:1:pos:R:3:initial_magmoms:R:1 pbc="T T T"
Si       2.11459580       0.10396278      -0.95863778       0.00000000
Si      -0.67168557      -2.03382279       0.95715824       0.00000000
Si      -0.59328180       1.70962640       1.53675888       0.00000000
Si      -1.29635820       0.21421350      -2.00477478       0.00000000
Si      -2.87081928      -1.11382875       1.36843556       0.00000000
Si      -1.38865734       3.08978036      -0.17434470       0.00000000
Si       2.19508469       2.40786467      -1.52272047       0.00000000
Si       3.41509166      -0.95599494       0.68402854       0.00000000
Si      -3.50212194      -0.28287585      -0.93709845       0.00000000
Si      -0.23534163      -1.26263790      -3.44722168       0.00000000
