10
Lattice="16.28999089631971 0.0 0.0 0.0 16.28999089631971 0.0 0.0 0.0 34.40785480372833" Properties=species:S:1:pos:R:3:initial_magmoms:R:1 pbc="T T T"
Si       0.23337054       2.09213352       1.12025156       0.00000000
Si       2.19913371      -0.91999404      -0.41127732       0.00000000
Si      -1.75860324      -1.06951995       1.37435371       0.00000000
Si      -0.63130266       0.83095290      -2.30553401       0.00000000
Si      -0.54354843      -3.10288662       0.89185209       0.00000000
Si       2.87081928       1.11382875      -1.36843556       0.00000000
Si      -1.75728375       2.92912675       0.08275094       0.00000000
Si      -2.70806589      -0.52950645      -2.29954704       0.00000000
Si      -3.57285312      -0.56488833      -0.10625152       0.00000000
Si       2.27753748       2.82345515       0.16832332       0.00000000
