10
Lattice="16.28999089631971 0.0 0.0 0.0 16.28999089631971 0.0 0.0 0.0 34.40785480372833" Properties=species:S:1:pos:R:3:initial_magmoms:R:1 pbc="T T T"
Si       1.85269428      -1.20532968      -0.78394900       0.00000000
Si      -1.66607441       0.67005657      -1.51442817       0.00000000
Si      -1.12233213      -1.43666397       1.49357700       0.00000000
Si       0.98499114       1.70989614       1.30078968       0.00000000
Si      -0.81054153      -2.58023826      -2.16029837       0.00000000
Si      -3.14384687       1.60775784       0.08130581       0.00000000
Si       0.71418618      -2.80266192       2.08054092       0.00000000
Si       3.07380897       1.85624550       0.25224412       0.00000000
Si       1.15867512       0.57772485       3.39905065       0.00000000
Si       1.56599028      -3.39322329       0.01145782       0.00000000
