10
Lattice="16.28999089631971 0.0 0.0 0.0 16.28999089631971 0.0 0.0 0.0 34.40785480372833" Properties=species:S:1:pos:R:3:initial_magmoms:R:1 pbc="T T T"
Si       1.35640314      -1.35776319      -1.35656484       0.00000000
Si       1.35542574       1.35988026       1.35594550       0.00000000
Si      -1.35614413      -1.35795867       1.35766589       0.00000000
Si      -1.35882383       1.35746120      -1.35701214       0.00000000
Si       0.00316026       2.70886331       2.71092758       0.00000000
Si       2.71384884       2.71399466      -0.00027526       0.00000000
Si       2.71381626      -2.71520889       0.00037849       0.00000000
Si       0.00003258      -2.71517631      -2.71395547       0.00000000
Si      -0.00405621       2.71493948      -2.71433396       0.00000000
Si       2.71557558      -0.00147877      -2.71488448       0.00000000
