10
Lattice="16.28999089631971 0.0 0.0 0.0 16.28999089631971 0.0 0.0 0.0 34.40785480372833" Properties=species:S:1:pos:R:3:initial_magmoms:R:1 pbc="T T T"
Si      -1.33965702      -1.35242838      -1.38006542       0.00000000
Si       1.26004779      -1.48364433       1.35174774       0.00000000
Si       1.37256282       1.36221867      -1.38126970       0.00000000
Si      -1.37932317       1.43674542       1.50097469       0.00000000
Si       2.52683964      -0.08055405       2.78160135       0.00000000
Si      -2.68046248       2.71609686      -0.02876498       0.00000000
Si      -2.71645687      -2.69539227       0.00959980       0.00000000
Si      -2.69849551       0.00167787      -2.74289249       0.00000000
Si       2.73914721      -2.70712107      -0.02301887       0.00000000
Si       0.01767465      -2.71254564      -2.74265164       0.00000000
