10
Lattice="16.28999089631971 0.0 0.0 0.0 16.28999089631971 0.0 0.0 0.0 34.40785480372833" Properties=species:S:1:pos:R:3:initial_magmoms:R:1 pbc="T T T"
Si       1.33965702       1.35242838       1.38006542       0.00000000
Si      -1.35883849       1.35410625      -1.36282707       0.00000000
Si       1.35733167      -1.36011726      -1.36258622       0.00000000
Si      -1.37679985      -1.34296389       1.38966522       0.00000000
Si       2.59970481      -0.13121595       2.73181316       0.00000000
Si       2.71221984       2.71464705      -0.00120428       0.00000000
Si       2.71621089      -2.71401174      -0.00158276       0.00000000
Si      -2.71768418       2.71274112      -0.00509237       0.00000000
Si      -0.00045612       2.71270854      -2.72004567       0.00000000
Si      -2.72259147      -2.71145421      -0.00674394       0.00000000
