10
Lattice="16.290000149 0.0 0.0 0.0 16.290000149 0.0 0.0 0.0 29.1751946751" Properties=species:S:1:pos:R:3:initial_magmoms:R:1 pbc="T T T"
Si       1.08258454      -1.42021108      -1.49817542       0.00000000
Si      -1.54530199       1.32410008      -1.18532981       0.00000000
Si      -1.05583636      -1.76243141       1.18159538       0.00000000
Si       2.12703419       0.97037902       0.67972369       0.00000000
Si       0.21914937       0.80729983       3.38689000       0.00000000
Si       2.37752552      -2.71410950      -0.07180015       0.00000000
Si      -0.20129553       2.70246215      -2.49838862       0.00000000
Si       2.49774572      -0.09405846      -2.73698336       0.00000000
Si      -1.40199886      -0.88024645       3.31698623       0.00000000
Si       0.54563355      -3.53910027       1.09141486       0.00000000
