10
Lattice="16.290000149 0.0 0.0 0.0 16.290000149 0.0 0.0 0.0 29.1751946751" Properties=species:S:1:pos:R:3:initial_magmoms:R:1 pbc="T T T"
Si      -1.36728487      -1.35808102      -1.32904682       0.00000000
Si      -1.43772283       1.33473745       1.28117032       0.00000000
Si       1.35365014       1.35140212      -1.36195644       0.00000000
Si       1.36259335      -1.32642955       1.38062856       0.00000000
Si      -0.08770536       2.67775022       2.59370398       0.00000000
Si      -0.09448200      -2.62461224       2.68382616       0.00000000
Si       0.00438201      -2.71472852      -2.66127373       0.00000000
Si      -2.71057457       0.02507031      -2.67233113       0.00000000
Si       2.73232172      -0.01462842      -2.67370237       0.00000000
Si       2.73066014       2.69159672      -0.02943777       0.00000000
