10
Lattice="16.290000149 0.0 0.0 0.0 16.290000149 0.0 0.0 0.0 29.1751946751" Properties=species:S:1:pos:R:3:initial_magmoms:R:1 pbc="T T T"
H       -1.03252537      -1.10853451       0.20939037       0.00000000
Si       1.48911778      -1.06994350      -1.42923444       0.00000000
Si       1.16358982      -0.16255791       2.01959450       0.00000000
Si      -1.25537257       1.64493164      -1.15676729       0.00000000
H       -1.54596988       0.41923944       2.03823745       0.00000000
Si       0.00387702      -2.22472532       2.61240528       0.00000000
Si      -2.55438605      -0.02397888      -2.33570774       0.00000000
Si      -2.00453339      -0.86304421       2.70007674       0.00000000
Si       0.06900444      -2.50838309      -2.59743841       0.00000000
Si       3.05312070      -2.14773878      -0.06622769       0.00000000
