10
Lattice="16.290000149 0.0 0.0 0.0 16.290000149 0.0 0.0 0.0 29.1751946751" Properties=species:S:1:pos:R:3:initial_magmoms:R:1 pbc="T T T"
Si       1.34759026       1.35676153       1.36192726       0.00000000
Si      -1.35169534       1.36708939      -1.35723006       0.00000000
Si      -1.35923761      -1.34465806       1.37298466       0.00000000
Si       1.37626066      -1.34954506      -1.35127832       0.00000000
Si      -0.05147640      -2.75279826      -2.59638518       0.00000000
Si       2.67654476      -2.69808014       0.06864923       0.00000000
Si      -0.02256165       2.72023454       2.69785943       0.00000000
Si      -2.67113648       0.02508660      -2.75165265       0.00000000
Si       2.69395877      -0.00255753       2.73038977       0.00000000
Si       2.69848739       2.73277784       0.01493770       0.00000000
