10
Lattice="16.290000149 0.0 0.0 0.0 16.290000149 0.0 0.0 0.0 29.1751946751" Properties=species:S:1:pos:R:3:initial_magmoms:R:1 pbc="T T T"
Si       1.41858208      -1.33103962      -1.30200141       0.00000000
Si       1.37388232       1.32626665       1.36361942       0.00000000
Si      -1.35089713      -1.37601631       1.34698956       0.00000000
Si      -1.35130438       1.31833342      -1.40904520       0.00000000
Si       0.10438632      -2.69042384      -2.64695455       0.00000000
Si       0.00456120       2.70537806       2.68583925       0.00000000
Si       2.75398743       2.64416024       0.00035010       0.00000000
Si      -2.72104904      -0.01254330       2.68292173       0.00000000
Si      -2.71389773       2.69177591      -0.05905059       0.00000000
Si       0.01637145       2.66853008      -2.75936949       0.00000000
