10
Lattice="16.290000149 0.0 0.0 0.0 16.290000149 0.0 0.0 0.0 29.1751946751" Properties=species:S:1:pos:R:3:initial_magmoms:R:1 pbc="T T T"
Si       1.34539274       1.32921514      -1.38170804       0.00000000
Si      -1.33051671      -1.36085032      -1.37866799       0.00000000
Si      -1.35425124       1.38870622       1.33044723       0.00000000
Si       1.36904582      -1.34817670       1.36440715       0.00000000
Si      -2.62529480      -2.67240710       0.09344815       0.00000000
Si       2.70779061       2.69674436      -0.01773852       0.00000000
Si      -2.69485310       0.03632670       2.71685248       0.00000000
Si      -0.04060445       2.66838347      -2.75413838       0.00000000
Si       0.00989455       2.71891505       2.70961703       0.00000000
Si       2.72935857       0.00612504       2.71790279       0.00000000
