10
Lattice="16.290000149 0.0 0.0 0.0 16.290000149 0.0 0.0 0.0 29.1751946751" Properties=species:S:1:pos:R:3:initial_magmoms:R:1 pbc="T T T"
Si       1.07440696      -1.08658536      -0.03171344       0.00000000
Si      -1.83793556       1.86839134      -0.74090407       0.00000000
Si      -0.29677122       2.61196469       0.89976300       0.00000000
Si      -1.81879481      -0.57146950       2.35683058       0.00000000
H        1.24232428       2.18433589      -1.72457493       0.00000000
Si      -0.23240943       1.10259843       2.86582102       0.00000000
Si      -1.20461293       0.80185245      -2.78801078       0.00000000
Si       2.94711841      -0.17913624       1.07641881       0.00000000
Si       0.24863427      -3.02005851       0.98550890       0.00000000
Si       1.35856972      -1.82176610      -2.23893361       0.00000000
