10
Lattice="16.290000149 0.0 0.0 0.0 16.290000149 0.0 0.0 0.0 29.1751946751" Properties=species:S:1:pos:R:3:initial_magmoms:R:1 pbc="T T T"
Si       1.42812477      -1.21420774       1.38585092       0.00000000
Si      -1.43500566       1.24509358       1.36846251       0.00000000
Si      -1.35764315      -1.41170770      -1.31294211       0.00000000
Si       1.36840562       1.42755787      -1.29940482       0.00000000
H       -1.18682425      -1.45336123       3.07057254       0.00000000
Si      -0.05108055      -2.41864148       2.77453184       0.00000000
Si       2.57380048      -2.64033209      -0.07804365       0.00000000
Si      -0.01489232       2.68353317       2.53666648       0.00000000
Si       2.56700755       0.02511918      -2.77447349       0.00000000
Si      -2.72598817       2.65909817       0.00927771       0.00000000
