10
Lattice="16.290000149 0.0 0.0 0.0 16.290000149 0.0 0.0 0.0 29.1751946751" Properties=species:S:1:pos:R:3:initial_magmoms:R:1 pbc="T T T"
Si       0.61072840       0.51390063      -2.18352992       0.00000000
Si      -2.30211911      -0.06224409       0.45017325       0.00000000
Si       0.77300938       2.04413438       0.88138263       0.00000000
Si       1.21819879      -1.87107430       0.95213248       0.00000000
Si       1.70639381       1.00501156       2.71422671       0.00000000
Si       3.02725218      -0.54252216       1.55754694       0.00000000
Si       1.29748222      -1.53619751      -2.94990393       0.00000000
Si      -0.24136893      -0.02057427       3.61002189       0.00000000
Si      -2.44918523       0.35443782       2.80872517       0.00000000
Si      -3.16267095       2.01748394      -0.33942421       0.00000000
