10
Lattice="16.290000149 0.0 0.0 0.0 16.290000149 0.0 0.0 0.0 29.1751946751" Properties=species:S:1:pos:R:3:initial_magmoms:R:1 pbc="T T T"
Si      -1.38898315      -1.34433226      -1.27516607       0.00000000
Si       1.32907228      -1.41056740       1.31008294       0.00000000
Si      -1.42612435       1.35969373       1.26900427       0.00000000
Si       1.29477808       1.31155678      -1.47211614       0.00000000
Si       2.62529480       2.67240710      -0.09344815       0.00000000
Si       2.66369033      -0.03319902       2.65485519       0.00000000
Si      -0.06955830       2.70873380       2.62340433       0.00000000
Si      -0.12570993      -2.74343151      -2.63372360       0.00000000
Si      -2.75090862      -0.02766042       2.65161674       0.00000000
Si      -0.05667291      -2.74203056       2.67723256       0.00000000
