10
Lattice="16.290000149 0.0 0.0 0.0 16.290000149 0.0 0.0 0.0 29.1751946751" Properties=species:S:1:pos:R:3:initial_magmoms:R:1 pbc="T T T"
Si       1.41281054       1.39080763      -1.25605340       0.00000000
Si       1.36563470      -1.34807896       1.37248868       0.00000000
Si      -1.28058526       1.34400646       1.45864303       0.00000000
Si      -1.39113832      -1.28752903      -1.43439553       0.00000000
Si      -2.69318174      -2.64069047       0.00102113       0.00000000
Si      -2.59749428       2.77977938       0.18386208       0.00000000
Si       0.13537316       2.76530898      -2.64410413       0.00000000
Si       2.74122747       0.07467336      -2.67542370       0.00000000
Si       2.71718343      -2.71805168       0.01409162       0.00000000
Si       2.71386027       2.71731375       0.17017891       0.00000000
