10
Lattice="16.290000149 0.0 0.0 0.0 16.290000149 0.0 0.0 0.0 29.1751946751" Properties=species:S:1:pos:R:3:initial_magmoms:R:1 pbc="T T T"
Si      -2.23192550       0.50560902      -0.32725816       0.00000000
Si       0.89031367      -1.42131880       1.59159440       0.00000000
Si       0.55943119      -1.03549015      -2.00976246       0.00000000
Si       1.24343200       1.78631092      -0.84252127       0.00000000
H       -0.01984122      -1.49468896       2.80688713       0.00000000
Si       0.60359338       1.11026125      -2.98894034       0.00000000
Si       2.77733100      -0.07988616       1.98096654       0.00000000
Si       3.30072870       1.17344202       0.04787649       0.00000000
Si       1.16414857       1.45143413       3.05951514       0.00000000
Si      -1.06171705      -2.72303642      -2.07966623       0.00000000
