10
Lattice="16.290000149 0.0 0.0 0.0 16.290000149 0.0 0.0 0.0 29.1751946751" Properties=species:S:1:pos:R:3:initial_magmoms:R:1 pbc="T T T"
Si      -1.35436690       1.35773893      -1.30453965       0.00000000
Si       1.38720754       1.35210259       1.29313215       0.00000000
Si       1.36067113      -1.34789977      -1.33409413       0.00000000
Si      -1.34757397      -1.30771234       1.39189019       0.00000000
H       -0.44056305      -2.20635020       2.20015978       0.00000000
Si       2.61043994      -0.18103077       2.53471174       0.00000000
Si      -2.66497886      -0.07203438      -2.62760556       0.00000000
Si      -2.55296882       2.76017763       0.17052901       0.00000000
Si       2.60172479      -2.73735534       0.03801528       0.00000000
Si       0.01743030       2.61144992      -2.73674996       0.00000000
