10
Lattice="16.290000149 0.0 0.0 0.0 16.290000149 0.0 0.0 0.0 29.1751946751" Properties=species:S:1:pos:R:3:initial_magmoms:R:1 pbc="T T T"
H       -0.64658269      -0.82606591       1.07676891       0.00000000
Si       1.23755131      -1.36570474      -1.41826456       0.00000000
Si      -1.57926664       1.08602173      -1.32108199       0.00000000
Si       1.27589797       1.46240218       1.29855874       0.00000000
H       -2.08555985      -1.73703530       0.52807102       0.00000000
Si      -3.18011754       1.01261899       0.47021661       0.00000000
H       -1.27637038      -2.47915883       2.17924117       0.00000000
Si       2.50717763      -0.02899620       2.66019425       0.00000000
Si      -0.28162152       2.67581171      -2.59726336       0.00000000
Si       2.56034819      -2.73945675      -0.08352858       0.00000000
