10
Lattice="16.290000149 0.0 0.0 0.0 16.290000149 0.0 0.0 0.0 29.1751946751" Properties=species:S:1:pos:R:3:initial_magmoms:R:1 pbc="T T T"
Si       1.24105366      -1.38945556       1.37210941       0.00000000
Si      -1.36067113       1.34789977       1.33409413       0.00000000
Si      -1.29295360      -1.43663140      -1.31372984       0.00000000
Si       1.45707535       1.29818269      -1.30319760       0.00000000
Si       2.68094306      -0.05932818       2.58212143       0.00000000
Si      -2.64785807      -0.07003071      -2.65100406       0.00000000
Si       0.09448200       2.62461224      -2.68382616       0.00000000
Si       0.02653641       2.70000236       2.62722628       0.00000000
Si      -2.60092658      -2.78364011       0.10926110       0.00000000
Si       0.13242141      -2.79888592      -2.61208435       0.00000000
