10
Lattice="16.290000149 0.0 0.0 0.0 16.290000149 0.0 0.0 0.0 29.1751946751" Properties=species:S:1:pos:R:3:initial_magmoms:R:1 pbc="T T T"
Si      -1.37088496       1.34561917       1.33884968       0.00000000
Si      -1.38829897      -1.34990344      -1.32289085       0.00000000
Si       1.36238158      -1.36591651       1.33607804       0.00000000
Si       1.37086867       1.35871633      -1.33771185       0.00000000
Si       0.00733050       2.68108967       2.68338853       0.00000000
Si      -0.05994720      -2.77135094      -2.60729962       0.00000000
Si      -0.00195480      -2.71345628       2.68633522       0.00000000
Si       2.69822675      -0.00004887      -2.70372364       0.00000000
Si      -2.72060921      -0.01901043       2.69581716       0.00000000
Si       2.72233595      -0.02212182       2.69934736       0.00000000
