10
Lattice="16.290000149 0.0 0.0 0.0 16.290000149 0.0 0.0 0.0 29.1751946751" Properties=species:S:1:pos:R:3:initial_magmoms:R:1 pbc="T T T"
H        0.71873110       0.07998390       1.32537074       0.00000000
H       -1.39554802       0.83867437       1.62925957       0.00000000
Si       1.60896331      -0.78938083      -1.52300351       0.00000000
Si      -1.87245407      -1.46280943      -0.15795450       0.00000000
Si      -0.34468011       1.94991302      -1.37199270       0.00000000
H        1.86336425       1.71435962       0.19395669       0.00000000
H        2.51478506       1.29301876       0.23850722       0.00000000
Si      -0.79602715       0.92778067       3.03057335       0.00000000
Si       0.12238677      -1.80255368      -2.99290817       0.00000000
Si      -0.99704575      -3.24451191      -1.44160472       0.00000000
