10
Lattice="16.290000149 0.0 0.0 0.0 16.290000149 0.0 0.0 0.0 29.1751946751" Properties=species:S:1:pos:R:3:initial_magmoms:R:1 pbc="T T T"
Si       1.91829413      -1.05968894       0.77871512       0.00000000
Si      -1.25491645      -1.31905833      -1.47005053       0.00000000
Si       1.16165620       1.44002787      -1.50363118       0.00000000
Si      -0.97352299       0.40382096       2.15225411       0.00000000
H       -1.88063165       1.97103300       0.65851332       0.00000000
Si       0.05093883       2.55439420       2.54436873       0.00000000
Si      -2.60130125      -2.60997568      -0.09928319       0.00000000
Si       3.66529890      -0.73716975      -0.71350856       0.00000000
Si       2.68302818       0.12315240      -2.70051437       0.00000000
Si       2.60154560       2.77015525      -0.29361916       0.00000000
