10
Lattice="16.290000149 0.0 0.0 0.0 16.290000149 0.0 0.0 0.0 29.1751946751" Properties=species:S:1:pos:R:3:initial_magmoms:R:1 pbc="T T T"
Si       1.42612435       1.38965104       1.17937807       0.00000000
Si      -1.31976694       1.44067132      -1.27618137       0.00000000
Si       1.43430193      -1.32170545      -1.28245403       0.00000000
Si      -1.38406357      -1.33555195       1.34068772       0.00000000
Si       0.05729193      -2.66190005      -2.61497270       0.00000000
Si      -2.66835089       0.07905537      -2.62451299       0.00000000
Si       0.01093059      -2.61868268       2.70051437       0.00000000
Si      -2.56753208       0.11554497       2.75302972       0.00000000
Si       2.72106533       0.09575262       2.60575334       0.00000000
Si       0.06913476       2.80029990      -2.58941523       0.00000000
