10
Lattice="16.290000149 0.0 0.0 0.0 16.290000149 0.0 0.0 0.0 29.1751946751" Properties=species:S:1:pos:R:3:initial_magmoms:R:1 pbc="T T T"
Si       1.36032904      -1.35294641       1.35256203       0.00000000
Si      -1.36262593       1.36271064       1.34555998       0.00000000
Si       1.34952877       1.38800901      -1.33514443       0.00000000
Si      -1.34662915      -1.38810023      -1.33940401       0.00000000
Si      -2.78495472      -0.04272378      -2.59781768       0.00000000
Si       0.00047241      -2.71609363       2.69514613       0.00000000
Si       2.79329520       0.05588285      -2.61611053       0.00000000
Si      -0.00267156       2.70650533       2.70882930       0.00000000
Si      -2.72696231       0.01517088       2.69581716       0.00000000
Si      -0.02678076       2.72857828      -2.69424170       0.00000000
