10
Lattice="16.290000149 0.0 0.0 0.0 16.290000149 0.0 0.0 0.0 29.1751946751" Properties=species:S:1:pos:R:3:initial_magmoms:R:1 pbc="T T T"
Si       1.37455021      -1.34640272       1.33666154       0.00000000
Si       1.36433638       1.34753976      -1.35025718       0.00000000
Si      -1.34991973      -1.37005580      -1.35116162       0.00000000
Si      -1.35000118       1.34965746       1.37321806       0.00000000
Si       0.01941768      -2.70129090       2.67081402       0.00000000
Si       0.00195480       2.71345628      -2.68633522       0.00000000
Si      -2.73352718      -0.01085891      -2.67230196       0.00000000
Si      -2.71865441       2.69444585       0.00948194       0.00000000
Si       2.72429075       2.69133446       0.01301214       0.00000000
Si       2.72696231      -0.01517088      -2.69581716       0.00000000
