10
Lattice="16.290000149 0.0 0.0 0.0 16.290000149 0.0 0.0 0.0 29.1751946751" Properties=species:S:1:pos:R:3:initial_magmoms:R:1 pbc="T T T"
Si       1.35881570      -1.33854931       1.38213692       0.00000000
Si      -1.50410295      -1.38388438      -1.17109552       0.00000000
Si      -1.40053113       1.35001747       1.36903726       0.00000000
Si       1.48467224       1.20055672      -1.43800158       0.00000000
Si      -2.65709288       0.11956860      -2.54800104       0.00000000
Si       2.65883916       2.66866040       0.01343809       0.00000000
Si      -0.24920442      -2.81051373      -2.50668896       0.00000000
Si       0.12950550       2.60664437      -2.75272338       0.00000000
Si      -0.01424561      -2.69902496       2.74621731       0.00000000
Si       2.67825684       0.00345348       2.77655951       0.00000000
