10
Lattice="16.290000149 0.0 0.0 0.0 16.290000149 0.0 0.0 0.0 29.1751946751" Properties=species:S:1:pos:R:3:initial_magmoms:R:1 pbc="T T T"
Si      -1.19270494      -1.14711721      -1.69207377       0.00000000
Si       0.56956357      -1.73770807       1.52300351       0.00000000
Si      -1.99361909       0.88591048       0.97392635       0.00000000
Si       1.43540933       1.42465337      -1.34658111       0.00000000
H        0.45331812       2.26839392       2.03736219       0.00000000
Si      -2.48337794      -2.58654740      -0.41189540       0.00000000
Si      -2.73351090       2.21247035      -0.81460061       0.00000000
Si      -2.62720235       0.48051754      -2.61867795       0.00000000
Si      -3.51272676      -0.96390863       0.90597732       0.00000000
H       -0.78900616       0.08405803       3.76193713       0.00000000
