10
Lattice="16.290000149 0.0 0.0 0.0 16.290000149 0.0 0.0 0.0 29.1751946751" Properties=species:S:1:pos:R:3:initial_magmoms:R:1 pbc="T T T"
Si       1.18439704      -0.51636042       0.79872930       0.00000000
H       -0.80918947       0.74212354      -1.65117014       0.00000000
H        0.62978770       1.65309293      -1.10247226       0.00000000
H       -0.57326140       0.11517030       2.33080630       0.00000000
Si      -1.88626799       0.57521620       1.72763833       0.00000000
Si      -1.65325583      -0.19271070      -2.46054839       0.00000000
Si       2.51680502      -1.58676004      -0.82218616       0.00000000
Si      -1.61709202       2.60530859       0.53180545       0.00000000
Si       0.49226751      -2.37749294       2.21638119       0.00000000
Si      -2.85785247      -1.42130251       0.85051528       0.00000000
