10
Lattice="16.290000149 0.0 0.0 0.0 16.290000149 0.0 0.0 0.0 29.1751946751" Properties=species:S:1:pos:R:3:initial_magmoms:R:1 pbc="T T T"
Si      -1.25489853       1.42662934       1.33559344       0.00000000
Si       1.63564796      -1.18138339       1.21988987       0.00000000
Si       0.68390471       1.76410928      -1.50500242       0.00000000
Si      -1.32085674      -1.99242992      -0.47561402       0.00000000
H       -3.26645291       0.36922914      -1.01412977       0.00000000
Si       0.30517035      -2.58851360       2.57845994       0.00000000
Si       0.17878601       0.85216249      -3.59913954       0.00000000
Si      -2.57181472       0.10554291       2.71411876       0.00000000
Si      -0.39980710      -2.78735423      -2.47860784       0.00000000
Si       0.24920442       2.81051373       2.50668896       0.00000000
