10
Lattice="16.290000149 0.0 0.0 0.0 16.290000149 0.0 0.0 0.0 29.1751946751" Properties=species:S:1:pos:R:3:initial_magmoms:R:1 pbc="T T T"
Si      -1.32907228       1.41056740      -1.31008294       0.00000000
Si       1.33461805       1.37736838       1.34477225       0.00000000
Si      -1.38574519      -1.33146316       1.36714962       0.00000000
Si       1.35199133      -1.32691825      -1.40501903       0.00000000
Si      -2.71805543       0.06623514      -2.58524901       0.00000000
Si       2.64572034      -2.68022630       0.02599510       0.00000000
Si       2.67719262       0.01935252       2.70862507       0.00000000
Si       2.66526834       2.73479781      -0.03912394       0.00000000
Si      -0.05358156       2.73833274       2.66798403       0.00000000
Si      -2.75443100      -2.68032404       0.02946695       0.00000000
