10
Lattice="16.290000149 0.0 0.0 0.0 16.290000149 0.0 0.0 0.0 29.1751946751" Properties=species:S:1:pos:R:3:initial_magmoms:R:1 pbc="T T T"
Si      -1.35001747      -1.34301277      -1.31253366       0.00000000
Si       1.39499416      -1.28313073       1.35982665       0.00000000
Si       1.38406357       1.33555195      -1.34068772       0.00000000
Si      -1.18346851       1.45109692       1.41234200       0.00000000
Si       2.27323694       0.60631381       2.42828063       0.00000000
Si       0.67176703       2.38298267       2.51846115       0.00000000
Si      -2.66012444       0.08436591      -2.60972116       0.00000000
Si       0.08770536      -2.67775022      -2.59370398       0.00000000
Si       0.01975977      -2.60236010       2.71734846       0.00000000
Si      -2.72181467      -2.59672376       0.11967665       0.00000000
