10
Lattice="16.290000149 0.0 0.0 0.0 16.290000149 0.0 0.0 0.0 29.1751946751" Properties=species:S:1:pos:R:3:initial_magmoms:R:1 pbc="T T T"
Si       1.83171278       1.02586276      -0.93771410       0.00000000
Si       1.40696731      -1.36414090       1.25286163       0.00000000
Si      -1.32103756       1.48998914       1.20633887       0.00000000
Si      -1.30318372      -1.18255627      -1.55545654       0.00000000
Si       0.99347824       2.26808116      -2.64984873       0.00000000
Si      -2.67004505       0.09475893       2.51754505       0.00000000
Si      -2.62466111      -2.58582575      -0.21227580       0.00000000
Si       0.05084109      -2.70348842       2.56857247       0.00000000
Si       2.74439262      -2.51742404      -0.30549638       0.00000000
Si       2.82883998       0.09488925       2.47917967       0.00000000
