10
Lattice="16.290000149 0.0 0.0 0.0 16.290000149 0.0 0.0 0.0 29.1751946751" Properties=species:S:1:pos:R:3:initial_magmoms:R:1 pbc="T T T"
Si      -1.35612622      -1.33934752       1.31571084       0.00000000
Si      -1.40696731       1.36414090      -1.25286163       0.00000000
Si       1.33742530      -1.15328314      -1.55835801       0.00000000
Si       1.42187266       1.45903015       1.22631804       0.00000000
Si       0.42474546       2.39000366      -2.19057573       0.00000000
Si       2.16875288       0.84654244      -2.64714273       0.00000000
Si       0.07726347      -2.65838141       2.59898177       0.00000000
Si       2.76441303      -2.51836886      -0.22148349       0.00000000
Si      -2.69195510       0.10246410       2.60437919       0.00000000
Si      -2.66035250      -2.63401157      -0.16073782       0.00000000
