10
Lattice="16.290000149 0.0 0.0 0.0 16.290000149 0.0 0.0 0.0 29.1751946751" Properties=species:S:1:pos:R:3:initial_magmoms:R:1 pbc="T T T"
Si       0.15711705      -0.79513120      -1.27580209       0.00000000
H       -1.40748859       2.03230784      -0.46128900       0.00000000
Si       0.91455319      -0.16379595       2.53719163       0.00000000
H       -1.28984221      -2.68146434       0.42269022       0.00000000
Si      -2.05029200      -0.71558713      -2.09259084       0.00000000
Si       1.01766889      -2.87485923      -0.48620462       0.00000000
Si      -0.80497036       1.46566018       2.63962574       0.00000000
Si       2.78752854       0.73018297       1.26115614       0.00000000
Si       0.87060277      -2.45817731       1.87234729       0.00000000
Si       1.23466798       0.37092330      -2.98339706       0.00000000
