10
Lattice="16.290000149 0.0 0.0 0.0 16.290000149 0.0 0.0 0.0 29.1751946751" Properties=species:S:1:pos:R:3:initial_magmoms:R:1 pbc="T T T"
Si      -1.16358982       0.16255791      -2.01959450       0.00000000
Si       0.23121212       1.85627810       1.43352319       0.00000000
Si       2.31170252      -0.17304867      -0.59899592       0.00000000
Si      -1.15971280      -2.06216741       0.59281078       0.00000000
H       -2.70955971       0.58179736       0.01864295       0.00000000
H       -2.19611519      -0.94597660      -1.81020413       0.00000000
Si      -3.16812321      -0.70048630       0.68048224       0.00000000
Si       1.66992538       0.67103398       2.87912491       0.00000000
Si       1.88953087      -1.98518087      -2.08582219       0.00000000
Si       0.32552796      -0.90738559      -3.44882894       0.00000000
