10
Lattice="16.290000149 0.0 0.0 0.0 16.290000149 0.0 0.0 0.0 29.1751946751" Properties=species:S:1:pos:R:3:initial_magmoms:R:1 pbc="T T T"
Si       2.26962056      -0.48677778       0.11617563       0.00000000
Si      -0.28416276       0.73518074       2.20722018       0.00000000
Si      -0.56956357       1.73770807      -1.52300351       0.00000000
Si      -1.52722009      -1.84715570      -0.42954639       0.00000000
H       -1.35856972       1.82176610       2.23893361       0.00000000
Si       2.54211968      -1.30709332      -2.03809157       0.00000000
Si      -1.10993545      -1.19829241       3.22444252       0.00000000
Si      -2.67387320      -1.97524397       1.63045575       0.00000000
Si      -2.56318265       2.62361855      -0.54907716       0.00000000
Si      -3.05294151      -0.84883933      -1.93489891       0.00000000
