10
Lattice="16.290000149 0.0 0.0 0.0 16.290000149 0.0 0.0 0.0 29.1751946751" Properties=species:S:1:pos:R:3:initial_magmoms:R:1 pbc="T T T"
Si      -2.05729670       0.61286890      -0.89039777       0.00000000
Si       1.02934882      -1.62263877      -1.31787272       0.00000000
Si      -0.52339770      -1.25332818       1.93309005       0.00000000
Si       1.51910767       1.84981911       0.06794903       0.00000000
Si       2.32002182      -0.18320858      -2.59805109       0.00000000
Si      -3.30072870      -1.17344202      -0.04787649       0.00000000
Si       2.55507023      -2.62095514       0.18747980       0.00000000
Si       0.77921587       3.17637898      -1.72057793       0.00000000
Si      -2.13658013       0.27799211       3.01163865       0.00000000
Si       0.88578505       2.91635800       2.11505574       0.00000000
