10
Lattice="16.290000149 0.0 0.0 0.0 16.290000149 0.0 0.0 0.0 29.1751946751" Properties=species:S:1:pos:R:3:initial_magmoms:R:1 pbc="T T T"
H        0.90701092      -0.89863786       0.80826959       0.00000000
Si       1.34757397       1.30771234      -1.39189019       0.00000000
Si      -1.14567571       1.42612435       1.46389457       0.00000000
Si      -1.31127985      -1.46844577      -1.28052847       0.00000000
H       -1.10876257      -1.25033896       2.21410552       0.00000000
Si      -2.57380048       2.64033209       0.07804365       0.00000000
Si      -0.49357071      -2.55376052       2.65821034       0.00000000
Si      -2.65932135      -0.13308930      -2.65663488       0.00000000
Si      -0.00679293       2.66545127      -2.69642984       0.00000000
Si       2.73478151       2.65981493      -0.09875803       0.00000000
