10
Lattice="16.290000149 0.0 0.0 0.0 16.290000149 0.0 0.0 0.0 29.1751946751" Properties=species:S:1:pos:R:3:initial_magmoms:R:1 pbc="T T T"
Si      -1.57496608       1.29116170      -1.11361718       0.00000000
Si      -1.41309235      -1.41716485       1.18139116       0.00000000
Si       1.55098720       1.13508721       1.47582722       0.00000000
Si       1.04334193      -1.08393661      -1.89968445       0.00000000
Si       2.05350113      -2.38560536      -0.25715017       0.00000000
Si       0.29796039      -3.00954495       1.20143452       0.00000000
Si       0.03319902       2.32850891      -2.51373477       0.00000000
Si       1.81398926       0.79182433      -3.15407195       0.00000000
H        3.27435519      -1.70217470       0.59044759       0.00000000
Si      -3.00385974      -2.23107842      -0.38257433       0.00000000
