10
Lattice="16.290000149 0.0 0.0 0.0 16.290000149 0.0 0.0 0.0 29.1751946751" Properties=species:S:1:pos:R:3:initial_magmoms:R:1 pbc="T T T"
Si       1.41099094      -1.18353367      -1.46710384       0.00000000
Si      -1.31123424      -1.43163037       1.34792317       0.00000000
Si      -1.84036602       1.17740374      -0.93973302       0.00000000
Si       1.44987517       1.43820339       1.27720250       0.00000000
H        0.81438598       2.58879053      -1.45353737       0.00000000
Si      -0.46736010       2.55539603      -2.27190158       0.00000000
Si      -2.76141567       1.97232806       1.06326079       0.00000000
Si      -2.47858999       0.15589302       2.63945069       0.00000000
Si      -0.12971727      -2.49707783      -2.65675158       0.00000000
Si       2.80093521      -2.50046615      -0.03824868       0.00000000
