10
Lattice="16.290000149 0.0 0.0 0.0 16.290000149 0.0 0.0 0.0 29.1751946751" Properties=species:S:1:pos:R:3:initial_magmoms:R:1 pbc="T T T"
Si      -1.33172380      -1.35507226      -1.38322515       0.00000000
Si       1.33219621      -1.36623091       1.37199270       0.00000000
Si       1.35153244       1.35121805      -1.37345146       0.00000000
Si      -1.37091754       1.33983134       1.36569086       0.00000000
Si      -2.69472440       2.70437949      -0.02695788       0.00000000
Si       0.00216657       2.72369943       2.67542370       0.00000000
Si       2.70252894       0.00581716       2.70241076       0.00000000
Si       2.70185454      -2.70640922      -0.00808153       0.00000000
Si      -2.69158043      -2.71821947      -0.04064105       0.00000000
Si      -2.69205284      -0.00212585      -2.73578718       0.00000000
