10
Lattice="16.290000149 0.0 0.0 0.0 16.290000149 0.0 0.0 0.0 29.1751946751" Properties=species:S:1:pos:R:3:initial_magmoms:R:1 pbc="T T T"
Si       1.34428339      -1.33032286      -1.38687205       0.00000000
Si      -1.36295173       1.33972219      -1.36356107       0.00000000
Si      -1.35205372      -1.39129633       1.32712126       0.00000000
Si       1.37065690       1.34791606       1.35553790       0.00000000
Si      -2.73113255      -0.04422735       2.64843665       0.00000000
Si       2.68933241      -2.71129133      -0.03220941       0.00000000
Si      -2.69842223      -0.06421518      -2.70235241       0.00000000
Si      -2.71818200       2.69286734       0.00198391       0.00000000
Si      -0.00715131       2.70946685      -2.70982126       0.00000000
Si       0.02665044       2.71313210       2.70634941       0.00000000
