10
Lattice="16.290000149 0.0 0.0 0.0 16.290000149 0.0 0.0 0.0 29.1751946751" Properties=species:S:1:pos:R:3:initial_magmoms:R:1 pbc="T T T"
Si       1.32835177      -1.42144749      -1.28440877       0.00000000
Si      -1.34718301      -1.37441175       1.33692412       0.00000000
Si       1.38829897       1.34990344       1.32289085       0.00000000
Si      -1.30028410       1.34853508      -1.41992755       0.00000000
Si       2.65742030      -0.07640010      -2.61001292       0.00000000
Si       0.01741401       2.69552261       2.66174054       0.00000000
Si      -2.67654476       2.69808014      -0.06864923       0.00000000
Si      -2.70609482      -0.01674612       2.67656153       0.00000000
Si       0.03642444      -2.73360863       2.65806446       0.00000000
Si      -2.72802117      -0.05471811      -2.66503442       0.00000000
