10
Lattice="16.290000149 0.0 0.0 0.0 16.290000149 0.0 0.0 0.0 29.1751946751" Properties=species:S:1:pos:R:3:initial_magmoms:R:1 pbc="T T T"
H        0.64453015      -0.84233962       1.07872365       0.00000000
Si      -1.43117425       1.22619718       1.28668444       0.00000000
Si      -1.43988940      -1.33012738      -1.21001202       0.00000000
Si       1.50104206       1.36094806      -1.16254398       0.00000000
Si       0.05540229       2.23937003       2.75658909       0.00000000
Si       0.08148258      -2.64700285      -2.40689521       0.00000000
Si       1.06375330      -3.50732500      -0.41988940       0.00000000
Si       0.15915330       2.70814736      -2.54538986       0.00000000
Si       2.79309972      -0.59028445       2.38857319       0.00000000
Si      -2.68094306       0.05932818      -2.58212143       0.00000000
