10
Lattice="16.290000149 0.0 0.0 0.0 16.290000149 0.0 0.0 0.0 29.1751946751" Properties=species:S:1:pos:R:3:initial_magmoms:R:1 pbc="T T T"
Si       0.68675383      -2.05009815      -0.76637401       0.00000000
Si      -0.61072840      -0.51390063       2.18352992       0.00000000
Si      -1.82044010       0.88793533      -1.14713948       0.00000000
Si       1.76505410       1.48198276      -0.33816968       0.00000000
H        1.37469682       0.26135676      -2.90640372       0.00000000
Si       0.16228098       1.53023374       3.06491255       0.00000000
Si      -2.84490192      -1.26263791      -1.53925410       0.00000000
Si       2.14920488       2.12426489       1.88226686       0.00000000
Si      -0.70100758       2.32989356      -2.69844293       0.00000000
Si       0.78556897       3.34306641      -1.22853827       0.00000000
