10
Lattice="16.290000149 0.0 0.0 0.0 16.290000149 0.0 0.0 0.0 29.1751946751" Properties=species:S:1:pos:R:3:initial_magmoms:R:1 pbc="T T T"
Si      -1.34356663      -1.32753727      -1.40703211       0.00000000
Si      -1.38569257       1.35006634       1.35483769       0.00000000
Si       1.35602848       1.34692237      -1.39320307       0.00000000
Si       1.39183521      -1.35570268       1.34990708       0.00000000
Si      -2.68377752      -2.67610493      -0.03457261       0.00000000
Si       2.66395748      -2.71741637      -0.07182933       0.00000000
Si      -2.71709057       2.66532095      -0.08767146       0.00000000
Si       0.02349018       2.71510319       2.67212691       0.00000000
Si       2.74947835       0.05600502       2.66284919       0.00000000
Si      -2.73795807      -0.03448593       2.70877095       0.00000000
