10
Lattice="16.290000149 0.0 0.0 0.0 16.290000149 0.0 0.0 0.0 29.1751946751" Properties=species:S:1:pos:R:3:initial_magmoms:R:1 pbc="T T T"
Si      -0.09145206       0.68616739       2.23133056       0.00000000
Si       0.72141895      -2.19395188      -0.39742450       0.00000000
Si       1.94776274       1.02558583      -0.89579518       0.00000000
Si      -2.20781630       0.37501209      -0.80129672       0.00000000
H        2.45071649      -0.25327692       1.49149430       0.00000000
Si       2.61767270      -1.64788827       0.89553260       0.00000000
Si      -2.16386588       2.66939345      -0.13645239       0.00000000
Si       1.45956772      -1.85050003      -2.65788941       0.00000000
Si       1.01437831       2.06470865      -2.72863926       0.00000000
Si       0.24136893       0.02057427      -3.61002189       0.00000000
