10
Lattice="16.290000149 0.0 0.0 0.0 16.290000149 0.0 0.0 0.0 29.1751946751" Properties=species:S:1:pos:R:3:initial_magmoms:R:1 pbc="T T T"
Si      -1.37336104       1.35909100       1.32099446       0.00000000
Si      -1.37391490      -1.36415719      -1.33152671       0.00000000
Si       1.35402481       1.37476198      -1.34272998       0.00000000
Si       1.35966115      -1.32546844       1.39118998       0.00000000
Si      -0.01386279       2.66738978       2.71055064       0.00000000
Si       2.68345172      -2.69635340       0.01785522       0.00000000
Si      -0.01343925      -2.71567334      -2.68452636       0.00000000
Si      -2.71515206       0.02637351       2.69377490       0.00000000
Si       2.70128927       0.02715543      -2.70929610       0.00000000
Si      -2.73010628       2.69376329      -0.05622060       0.00000000
