10
Lattice="16.290000149 0.0 0.0 0.0 16.290000149 0.0 0.0 0.0 29.1751946751" Properties=species:S:1:pos:R:3:initial_magmoms:R:1 pbc="T T T"
Si      -1.36381510      -1.36181143       1.32942610       0.00000000
Si       1.33582888      -1.44181162      -1.28866835       0.00000000
Si      -1.38505726       1.35643573      -1.33969576       0.00000000
Si       1.38026800       1.34394130       1.35723006       0.00000000
Si       2.69195510      -0.10246410      -2.60437919       0.00000000
Si       0.01979235      -2.69962769       2.68009173       0.00000000
Si      -2.71383257       0.00319284       2.68516822       0.00000000
Si      -0.03604977       2.75166594      -2.65090195       0.00000000
Si      -2.69866658      -2.71322984      -0.06479811       0.00000000
Si      -2.70840800       2.70824510       0.04527990       0.00000000
