10
Lattice="16.290000149 0.0 0.0 0.0 16.290000149 0.0 0.0 0.0 29.1751946751" Properties=species:S:1:pos:R:3:initial_magmoms:R:1 pbc="T T T"
Si       1.30406338      -1.38054493       1.37505610       0.00000000
Si      -1.37308411      -1.38386809      -1.30973284       0.00000000
Si      -1.32379057       1.37088496       1.37333476       0.00000000
Si       1.35386191       1.34804638      -1.37368487       0.00000000
Si      -2.68345172       2.69635340      -0.01785522       0.00000000
Si       2.68373354      -0.01899414       2.70853755       0.00000000
Si      -0.00216657      -2.72369943      -2.67542370       0.00000000
Si      -2.69689097      -0.01931994      -2.70238158       0.00000000
Si       2.69632082       2.70894557      -0.01960573       0.00000000
Si      -2.66400146       0.02231730       2.74579427       0.00000000
