10
Lattice="16.290000149 0.0 0.0 0.0 16.290000149 0.0 0.0 0.0 29.1751946751" Properties=species:S:1:pos:R:3:initial_magmoms:R:1 pbc="T T T"
Si      -1.45707535      -1.29818269       1.30319760       0.00000000
Si       1.37051029      -1.38704464      -1.31075397       0.00000000
Si      -1.36259335       1.32642955      -1.38062856       0.00000000
Si       1.38302101       1.35063649       1.33992917       0.00000000
Si      -0.05530455       2.72104904       2.57290207       0.00000000
Si      -0.21602169      -2.68763825       2.67530700       0.00000000
Si       2.72481203       2.68335398      -0.03285127       0.00000000
Si       2.72425817      -0.03989421      -2.68537244       0.00000000
Si       0.01044189      -2.73308735      -2.67816617       0.00000000
Si      -0.00894321       2.67783167      -2.74258500       0.00000000
