10
Lattice="16.290000149 0.0 0.0 0.0 16.290000149 0.0 0.0 0.0 29.1751946751" Properties=species:S:1:pos:R:3:initial_magmoms:R:1 pbc="T T T"
H        1.99146881      -0.09668115      -1.03116808       0.00000000
Si       1.01015920      -1.30166875       1.64253428       0.00000000
Si       0.77064733       1.87576094      -1.25438749       0.00000000
Si      -0.75500893      -2.05177439      -0.98168695       0.00000000
Si      -1.04334193       1.08393661       1.89968445       0.00000000
H       -1.21282309       1.24942672      -2.33098135       0.00000000
H       -3.00887706       0.03639186      -1.24411783       0.00000000
H        2.23101326      -0.61823809       2.49013204       0.00000000
H       -1.86424391       1.67076758      -2.37553188       0.00000000
Si      -1.01014291       3.41244552      -0.61405032       0.00000000
