10
Lattice="16.290000149 0.0 0.0 0.0 16.290000149 0.0 0.0 0.0 29.1751946751" Properties=species:S:1:pos:R:3:initial_magmoms:R:1 pbc="T T T"
Si      -1.22316724       1.32322042      -1.51500951       0.00000000
Si       1.34322454       1.45187884       1.29044804       0.00000000
Si      -1.60816510      -1.03734721       1.40011759       0.00000000
Si       1.78079024      -1.53668458      -0.64033717       0.00000000
H       -0.85410100      -1.74167795      -1.76148155       0.00000000
H       -0.20268018      -2.16301880      -1.71693103       0.00000000
H        1.34705269       0.61608781      -2.85085415       0.00000000
Si      -0.03319902      -2.32850891       2.51373477       0.00000000
Si       1.01014291      -3.41244552       0.61405032       0.00000000
Si       0.03404610       1.07613370      -3.45402212       0.00000000
