10
Lattice="16.290000149 0.0 0.0 0.0 16.290000149 0.0 0.0 0.0 29.1751946751" Properties=species:S:1:pos:R:3:initial_magmoms:R:1 pbc="T T T"
Si      -1.41516118      -1.32615262       1.23880794       0.00000000
Si       1.36215352      -1.36966321      -1.26223562       0.00000000
Si       1.23013936       1.13784022       1.62540845       0.00000000
Si      -1.39518964       1.45042903      -1.19352804       0.00000000
Si      -0.37071153       1.06443748       3.41670705       0.00000000
Si       2.70005123       0.07763814      -2.51822775       0.00000000
Si      -2.49774572       0.09405846       2.73698336       0.00000000
Si      -0.05773176      -2.67972131      -2.57614051       0.00000000
Si       2.52778448       2.72763020       0.34922708       0.00000000
Si      -0.12022020      -2.62005104       2.66518321       0.00000000
