10
Lattice="16.290000149 0.0 0.0 0.0 16.290000149 0.0 0.0 0.0 29.1751946751" Properties=species:S:1:pos:R:3:initial_magmoms:R:1 pbc="T T T"
Si      -1.25478613       1.34517120       1.48156219       0.00000000
Si       1.35524656      -1.38734552       1.40011759       0.00000000
Si      -1.44987517      -1.43820339      -1.27720250       0.00000000
Si       1.52495578       1.37387418      -1.28108280       0.00000000
H       -0.63548920       1.15058715      -2.73073987       0.00000000
Si      -0.03888423      -2.62173706      -2.74430634       0.00000000
Si      -2.58526375      -0.06195902       2.84013226       0.00000000
Si      -2.89043410       2.52655459       0.26167232       0.00000000
Si       0.13367574       2.61681748       2.86274304       0.00000000
Si       3.73277208       0.99886208      -0.47978608       0.00000000
