10
Lattice="16.290000149 0.0 0.0 0.0 16.290000149 0.0 0.0 0.0 29.1751946751" Properties=species:S:1:pos:R:3:initial_magmoms:R:1 pbc="T T T"
Si       1.35112519       1.38616498       1.32283250       0.00000000
Si      -1.33868452       1.35917245      -1.36324015       0.00000000
Si       1.38838042      -1.35088084      -1.33348145       0.00000000
Si      -1.35050617      -1.36552555       1.36388200       0.00000000
Si       2.66123216      -0.04121370       2.62002001       0.00000000
Si      -2.66641238       2.70793559       0.03235529       0.00000000
Si       0.04010598      -2.71261082      -2.68370946       0.00000000
Si      -2.69066819       0.00636939      -2.72435050       0.00000000
Si      -2.69296508      -2.72642474       0.00980287       0.00000000
Si       0.01990638       2.71090037      -2.72618854       0.00000000
