10
Lattice="16.28999089631971 0.0 0.0 0.0 16.28999089631971 0.0 0.0 0.0 34.53561885213415" Properties=species:S:1:pos:R:3:initial_magmoms:R:1 pbc="T T T"
Si      -1.35720787      -1.35490446       1.37787526       0.00000000
Si       1.36751033       1.35949824       1.37542323       0.00000000
Si       1.26448097      -1.56721366      -1.28894254       0.00000000
Si      -1.46247385       1.36513458      -1.35010516       0.00000000
Si      -2.68912714      -2.70038305      -0.00879968       0.00000000
Si      -2.70470038       2.70606222       0.05531228       0.00000000
Si       2.71394725       2.70212004      -0.01257443       0.00000000
Si      -2.70885433       0.00092853       2.73723252       0.00000000
Si       2.72331400      -2.72506718       0.04953792       0.00000000
Si       0.00717611      -2.71321141       2.73623098       0.00000000
