10
Lattice="16.28999089631971 0.0 0.0 0.0 16.28999089631971 0.0 0.0 0.0 34.53561885213415" Properties=species:S:1:pos:R:3:initial_magmoms:R:1 pbc="T T T"
Si      -1.35742941       1.35658070       1.35704337       0.00000000
Si       1.35674523      -1.35734728       1.35697429       0.00000000
Si       1.35690813       1.35791648      -1.35655987       0.00000000
Si      -1.35812988      -1.35779630      -1.35780315       0.00000000
Si       0.00166158       2.71208789      -2.71273984       0.00000000
Si       2.71282257       0.00051965       2.71405220       0.00000000
Si       0.00071676       2.71311416       2.71429394       0.00000000
Si      -2.71420722       0.00077378       2.71439755       0.00000000
Si      -2.71384884       0.00299573      -2.71481198       0.00000000
Si       2.71471221       2.71474316       0.00041443       0.00000000
