10
Lattice="16.28999089631971 0.0 0.0 0.0 16.28999089631971 0.0 0.0 0.0 34.53561885213415" Properties=species:S:1:pos:R:3:initial_magmoms:R:1 pbc="T T T"
Si       1.35547461      -1.35521397      -1.35597276       0.00000000
Si      -1.35663120       1.35738054      -1.35573101       0.00000000
Si      -1.35167904      -1.36309507       1.36515924       0.00000000
Si       1.36155078       1.36295172       1.36084229       0.00000000
Si      -2.71498914      -2.71012822       0.00338449       0.00000000
Si       2.71394658      -2.71187515       0.00669991       0.00000000
Si      -0.00060273      -2.71308090      -2.71305066       0.00000000
Si      -2.71248048       2.71524978       0.00386799       0.00000000
Si      -2.71477737       0.00084708      -2.71298159       0.00000000
Si       2.71502172       0.00154755      -2.71329241       0.00000000
