10
Lattice="16.28999089631971 0.0 0.0 0.0 16.28999089631971 0.0 0.0 0.0 34.53561885213415" Properties=species:S:1:pos:R:3:initial_magmoms:R:1 pbc="T T T"
Si      -0.32873220       0.67913662       2.23866914       0.00000000
Si      -1.89488538      -0.79749498      -1.29954153       0.00000000
Si       0.89073720       1.91186608      -1.42380075       0.00000000
Si       1.81249056      -1.78636207       0.02275899       0.00000000
Si      -0.54620370      -2.15021551      -2.82287399       0.00000000
Si      -2.46948255       1.69998205       2.02813989       0.00000000
Si       2.19815631       0.55501007      -2.83250943       0.00000000
Si       0.87949710      -3.41884813      -1.42683989       0.00000000
Si       3.54074553      -0.75540330      -1.32720457       0.00000000
Si       2.72971530       2.86030246      -0.27107022       0.00000000
