10
Lattice="16.28999089631971 0.0 0.0 0.0 16.28999089631971 0.0 0.0 0.0 34.53561885213415" Properties=species:S:1:pos:R:3:initial_magmoms:R:1 pbc="T T T"
Si       2.14075035      -1.02084543       0.21052925       0.00000000
Si       0.29701557       1.33115364       1.99843924       0.00000000
Si      -0.61004095       1.50641775      -1.83277178       0.00000000
Si      -1.31885632      -2.08832587       0.30643472       0.00000000
Si      -0.60929813      -2.25209739       2.51913305       0.00000000
Si      -1.16361425      -0.04245174       3.27073215       0.00000000
Si       2.46948255      -1.69998205      -2.02813989       0.00000000
Si       1.77479550      -2.33143457       2.18089101       0.00000000
Si      -1.29134577       3.47423346      -0.50508371       0.00000000
Si      -3.56368904      -1.33248453      -0.12722929       0.00000000
