10
Lattice="16.28999089631971 0.0 0.0 0.0 16.28999089631971 0.0 0.0 0.0 34.53561885213415" Properties=species:S:1:pos:R:3:initial_magmoms:R:1 pbc="T T T"
Si       0.32873220      -0.67913662      -2.23866914       0.00000000
Si      -2.14075035       1.02084543      -0.21052925       0.00000000
Si      -0.36595485      -1.31058914       1.97036176       0.00000000
Si       1.98355185       1.75106097       0.97576992       0.00000000
Si      -1.84373478       2.35199907       1.78790999       0.00000000
Si       1.39517334       3.04614855      -1.01179059       0.00000000
Si       0.39951225       2.44102392       2.56741388       0.00000000
Si      -3.45960667      -1.06748044       0.09590547       0.00000000
Si      -2.75004848      -1.23125196       2.30860380       0.00000000
Si       0.47271951      -3.52257308       1.70302139       0.00000000
