10
Lattice="16.28999089631971 0.0 0.0 0.0 16.28999089631971 0.0 0.0 0.0 34.53561885213415" Properties=species:S:1:pos:R:3:initial_magmoms:R:1 pbc="T T T"
Si      -0.62814240       1.38688173      -1.75941809       0.00000000
Si       0.68615109      -1.87785581      -1.21368593       0.00000000
Si       2.04299406       0.53331831       1.01517508       0.00000000
Si      -1.86344568      -0.65298465       1.29149472       0.00000000
Si       3.52456956       0.18821466      -0.80747776       0.00000000
Si      -2.37514716      -2.75995673       0.39387895       0.00000000
Si      -1.17480222       3.41396046      -0.73177564       0.00000000
Si      -0.37467000      -3.73642820      -0.24040258       0.00000000
Si       2.13110667      -0.87802937       2.98084000       0.00000000
Si      -0.82376901       2.17368873       3.03395581       0.00000000
