10
Lattice="16.28999089631971 0.0 0.0 0.0 16.28999089631971 0.0 0.0 0.0 34.53561885213415" Properties=species:S:1:pos:R:3:initial_magmoms:R:1 pbc="T T T"
Si       0.29264985       0.62670888       2.21829311       0.00000000
Si      -1.77979653       1.48853133      -0.34856820       0.00000000
Si      -0.51170148      -2.10697208      -0.89761577       0.00000000
Si       1.86344568       0.65298465      -1.29149472       0.00000000
Si      -3.10340790       0.50914395       1.35704337       0.00000000
Si      -1.66755843      -1.26989347      -2.76443969       0.00000000
Si       1.03967667       2.82667338       1.74246109       0.00000000
Si      -0.42367032       3.46489929      -0.03249804       0.00000000
Si      -2.65880493       0.82793925      -2.41652767       0.00000000
Si       1.48877568      -3.08344355      -1.53189730       0.00000000
