10
Lattice="16.28999089631971 0.0 0.0 0.0 16.28999089631971 0.0 0.0 0.0 34.53561885213415" Properties=species:S:1:pos:R:3:initial_magmoms:R:1 pbc="T T T"
Si      -0.17624151       2.23546041       0.66287704       0.00000000
Si       1.28249541      -1.00835100       1.68561543       0.00000000
Si       1.39106826      -0.19877058      -1.89407254       0.00000000
Si      -2.15430363      -1.03755897       0.13745184       0.00000000
Si       2.03960574       2.35548513       0.14857232       0.00000000
Si       0.55664559      -3.23946198       1.27978714       0.00000000
Si      -0.47759022       0.00713502      -3.50184464       0.00000000
Si      -1.68660144      -3.32848683       0.50028325       0.00000000
Si       1.55230668      -2.63433735      -2.29941732       0.00000000
Si      -0.27205929       2.35126602       3.02970793       0.00000000
