10
Lattice="16.28999089631971 0.0 0.0 0.0 16.28999089631971 0.0 0.0 0.0 34.53561885213415" Properties=species:S:1:pos:R:3:initial_magmoms:R:1 pbc="T T T"
Si       1.73902266      -0.18943641       1.52153661       0.00000000
Si      -1.42381116       1.77129315       0.50325332       0.00000000
Si       0.85291182       0.19961766      -2.18317037       0.00000000
Si       0.02047653      -2.45464236      -0.29061740       0.00000000
Si       2.28568248      -2.21651514       0.49389416       0.00000000
Si       0.12706200      -2.03149332      -2.58899865       0.00000000
Si       2.50004259       1.99870155       1.53783743       0.00000000
Si       0.62670888      -0.79148223       3.51230894       0.00000000
Si      -3.54332098       0.95040747       0.24817310       0.00000000
Si      -0.70164288       3.55923468      -0.83907786       0.00000000
