10
Lattice="16.28999089631971 0.0 0.0 0.0 16.28999089631971 0.0 0.0 0.0 34.53561885213415" Properties=species:S:1:pos:R:3:initial_magmoms:R:1 pbc="T T T"
Si      -0.87788439       0.77908554       2.05832403       0.00000000
Si      -0.74702682      -2.19996450       0.47583202       0.00000000
Si      -1.46334699       0.63822591      -1.77495912       0.00000000
Si       2.14047342       1.15096995      -0.07666912       0.00000000
Si      -1.03967667      -2.82667338      -1.74246109       0.00000000
Si      -0.46296180       3.04570872       1.86488992       0.00000000
Si       1.41499827       3.38121756       0.32805403       0.00000000
Si      -2.81947320      -1.33814205      -2.09102928       0.00000000
Si       1.00160694      -3.40737115       1.35324445       0.00000000
Si       0.82376901      -2.17368873      -3.03395581       0.00000000
