10
Lattice="16.28999089631971 0.0 0.0 0.0 16.28999089631971 0.0 0.0 0.0 34.53561885213415" Properties=species:S:1:pos:R:3:initial_magmoms:R:1 pbc="T T T"
Si      -1.32797709       1.40108661       1.38805982       0.00000000
Si       1.40519169      -1.32449103       1.39414500       0.00000000
Si       1.05205707       1.64519226      -1.37833255       0.00000000
Si      -1.00263321      -1.64840139      -1.47506688       0.00000000
Si       2.76405462       0.54592677      -2.48689200       0.00000000
Si      -2.67592572       0.03872133       2.76243662       0.00000000
Si       0.04059468      -2.67701715       2.76274745       0.00000000
Si       0.04610070       2.74572837       2.76305827       0.00000000
Si       2.78112654      -2.73196332       0.00736645       0.00000000
Si       2.75328693       0.04049694       2.76430155       0.00000000
