10
Lattice="16.28999089631971 0.0 0.0 0.0 16.28999089631971 0.0 0.0 0.0 34.53561885213415" Properties=species:S:1:pos:R:3:initial_magmoms:R:1 pbc="T T T"
Si      -1.83703959      -1.39564575      -0.64540201       0.00000000
Si      -1.17806022       2.16257895       0.19664592       0.00000000
Si       1.56942747      -0.42880167      -1.88170878       0.00000000
Si       0.61682085      -0.58663548       2.49875703       0.00000000
Si       1.14634359       3.23483562       0.88121134       0.00000000
Si      -1.92047697      -2.65194684       1.41295656       0.00000000
Si       0.11635947      -1.49578038      -3.55610012       0.00000000
Si       3.05787735      -2.32119468      -0.85610393       0.00000000
Si      -1.14725583      -3.12772887      -2.19532691       0.00000000
Si      -0.42845958      -2.56666869       3.20573608       0.00000000
