10
Lattice="16.28999089631971 0.0 0.0 0.0 16.28999089631971 0.0 0.0 0.0 34.53561885213415" Properties=species:S:1:pos:R:3:initial_magmoms:R:1 pbc="T T T"
Si       0.83867436      -2.21198393      -0.26734037       0.00000000
Si       0.36595485       1.31058914      -1.97036176       0.00000000
Si       1.14474717       0.79121507       1.95606401       0.00000000
Si      -2.38409363       0.07933719       0.33824204       0.00000000
Si      -1.10594439      -1.47821717       3.04383300       0.00000000
Si      -3.09365182       0.24310870      -1.87445630       0.00000000
Si      -1.77479550       2.33143457      -2.18089101       0.00000000
Si       0.40356846      -3.01920230       2.08256805       0.00000000
Si       0.76546710       3.75161306       0.59705211       0.00000000
Si      -2.93840975       2.28898283       1.08984113       0.00000000
