10
Lattice="16.28999089631971 0.0 0.0 0.0 16.28999089631971 0.0 0.0 0.0 34.53561885213415" Properties=species:S:1:pos:R:3:initial_magmoms:R:1 pbc="T T T"
Si      -0.74929113       0.15128523      -2.23093315       0.00000000
Si       0.46376001       2.33950464       0.16656538       0.00000000
Si       1.73495016      -1.57786569       0.51730932       0.00000000
Si      -1.98949770      -0.30460671       1.71041202       0.00000000
Si       0.11323179      -2.48883507       2.40537266       0.00000000
Si       1.27684278       0.52753536      -3.40953088       0.00000000
Si      -2.08059138       2.15461314      -2.18617497       0.00000000
Si      -0.85204845       2.96719092       2.12798242       0.00000000
Si       2.67382431       2.45301336       0.98979139       0.00000000
Si       2.33105013       1.03591368       2.87623155       0.00000000
