10
Lattice="16.28999089631971 0.0 0.0 0.0 16.28999089631971 0.0 0.0 0.0 34.53561885213415" Properties=species:S:1:pos:R:3:initial_magmoms:R:1 pbc="T T T"
Si       1.35725022      -1.35668007       1.35690522       0.00000000
Si      -1.35708732       1.35834882       1.35707790       0.00000000
Si       1.35700587       1.35791842      -1.35807943       0.00000000
Si      -1.35961227      -1.35653346      -1.35700883       0.00000000
Si      -2.71462750      -0.00179190      -2.71301613       0.00000000
Si       2.71384884      -0.00026064       2.71439755       0.00000000
Si      -2.71489303       0.00071676       2.71387952       0.00000000
Si      -2.71473664      -2.71423980      -0.00041443       0.00000000
Si      -0.00092853      -2.71533123       2.71429394       0.00000000
Si      -2.71477574       2.71522439       0.00006907       0.00000000
