10
Lattice="16.28999089631971 0.0 0.0 0.0 16.28999089631971 0.0 0.0 0.0 34.53561885213415" Properties=species:S:1:pos:R:3:initial_magmoms:R:1 pbc="T T T"
Si       0.70955819      -0.16377151       2.21269834       0.00000000
Si      -2.24483272       0.75584134      -0.43366401       0.00000000
Si       1.31885632       2.08832587      -0.30643472       0.00000000
Si       0.36153863      -2.55706803      -0.36749373       0.00000000
Si       0.02329470      -1.34686764      -2.42951307       0.00000000
Si      -1.79675998       0.50928730      -2.70058330       0.00000000
Si       0.15524207       2.04587413       2.96429743       0.00000000
Si       3.45960667       1.06748044      -0.09590547       0.00000000
Si       3.09365182      -0.24310870       1.87445630       0.00000000
Si      -0.70981460      -1.88253171       3.09529111       0.00000000
