10
Lattice="16.28999089631971 0.0 0.0 0.0 16.28999089631971 0.0 0.0 0.0 34.53561885213415" Properties=species:S:1:pos:R:3:initial_magmoms:R:1 pbc="T T T"
Si      -0.84209526       2.20753350      -0.43072848       0.00000000
Si      -2.15397783      -1.11443148      -0.16663445       0.00000000
Si       1.31580846      -0.62768628      -1.96141703       0.00000000
Si       1.47110103      -0.83201175       1.85680859       0.00000000
Si      -1.42097670       2.23952706       1.89783692       0.00000000
Si      -1.13744925      -3.27179763      -0.41757040       0.00000000
Si       3.52587276      -0.51417756      -1.13819103       0.00000000
Si       0.85204845      -2.96719092      -2.12798242       0.00000000
Si       3.18309858      -1.93127724       0.74824914       0.00000000
Si      -2.26709559       0.39710133       3.21815997       0.00000000
