10
Lattice="16.28999089631971 0.0 0.0 0.0 16.28999089631971 0.0 0.0 0.0 34.53561885213415" Properties=species:S:1:pos:R:3:initial_magmoms:R:1 pbc="T T T"
Si       1.42480485      -1.24297587       1.28883203       0.00000000
Si       1.68049269       0.92794356      -1.26989890       0.00000000
Si      -1.31841486       1.50184026       1.27145369       0.00000000
Si      -0.94273488      -1.76748129      -1.31100183       0.00000000
Si       1.18068291      -0.18777483      -3.46963812       0.00000000
Si       0.04786002      -2.56424800       2.64011139       0.00000000
Si      -2.66492997       0.14600727       2.64366856       0.00000000
Si       0.72713673       2.65098573      -2.63846892       0.00000000
Si       2.77187382      -2.60838575      -0.24733388       0.00000000
Si       2.76820857       0.14748966       2.64301239       0.00000000
