10
Lattice="16.28999089631971 0.0 0.0 0.0 16.28999089631971 0.0 0.0 0.0 34.53561885213415" Properties=species:S:1:pos:R:3:initial_magmoms:R:1 pbc="T T T"
Si      -1.35547461       1.35521397       1.35597276       0.00000000
Si      -1.35607734      -1.35786693      -1.35707790       0.00000000
Si       1.35954711       1.35676152      -1.35731965       0.00000000
Si       1.35847197      -1.35666118       1.36267267       0.00000000
Si      -2.71210581       2.71259451       0.00024175       0.00000000
Si      -2.71282257      -0.00051965      -2.71405220       0.00000000
Si       0.00188964       2.71422351      -2.71363777       0.00000000
Si      -2.70715365      -0.00788110       2.72113200       0.00000000
Si      -2.71410948      -2.71649501       0.00062164       0.00000000
Si       2.71687878       0.00000000      -2.71391405       0.00000000
