10
Lattice="16.28999089631971 0.0 0.0 0.0 16.28999089631971 0.0 0.0 0.0 34.53561885213415" Properties=species:S:1:pos:R:3:initial_magmoms:R:1 pbc="T T T"
Si      -0.49016610      -2.23491958      -0.36279688       0.00000000
Si      -0.41990733       1.18161144      -1.97754518       0.00000000
Si      -1.48157550       0.34510365       1.82265284       0.00000000
Si       2.26023750       0.48273786       0.57249727       0.00000000
Si       0.70022565      -0.58839480      -3.05661119       0.00000000
Si       0.82679895      -2.73439772       1.48651747       0.00000000
Si      -0.67236975       2.54715327       2.04337010       0.00000000
Si       1.99500372      -0.88058853       2.59632021       0.00000000
Si       1.67391153       1.87501158       2.37505037       0.00000000
Si      -2.83841847      -2.06607047      -0.40620818       0.00000000
