10
Lattice="16.28999089631971 0.0 0.0 0.0 16.28999089631971 0.0 0.0 0.0 34.53561885213415" Properties=species:S:1:pos:R:3:initial_magmoms:R:1 pbc="T T T"
Si       2.02219173       0.78898986      -0.84729735       0.00000000
Si      -1.45666809       1.56491514      -0.95501400       0.00000000
Si      -1.23404895      -2.00774250      -0.05826162       0.00000000
Si       0.49980978       1.11571839       2.19973922       0.00000000
Si      -0.45354618       2.83876056       0.83116920       0.00000000
Si       2.49719184      -0.59916249       2.07142427       0.00000000
Si      -2.12341779      -1.57970646       2.15863629       0.00000000
Si       1.53448542       0.29527254      -3.07284294       0.00000000
Si       1.86325020       3.00185604       0.10377959       0.00000000
Si      -0.30859776       1.78284276      -3.08444691       0.00000000
