10
Lattice="16.28999089631971 0.0 0.0 0.0 16.28999089631971 0.0 0.0 0.0 34.53561885213415" Properties=species:S:1:pos:R:3:initial_magmoms:R:1 pbc="T T T"
Si      -0.87900840      -0.66059208      -2.06795948       0.00000000
Si       1.77979653      -1.48853133       0.34856820       0.00000000
Si      -1.32361137      -0.97938738       1.70561156       0.00000000
Si       1.35612621       1.97636796       0.31607016       0.00000000
Si       2.07244638      -0.86182245       2.56686131       0.00000000
Si       0.74989386       0.31320783      -3.48685617       0.00000000
Si       0.11223810      -2.75842480      -2.41587150       0.00000000
Si       2.81947320       1.33814205       2.09102928       0.00000000
Si      -0.09873369      -0.62708355       3.70387812       0.00000000
Si       1.26809505      -3.59550341      -0.54904758       0.00000000
