10
Lattice="16.28999089631971 0.0 0.0 0.0 16.28999089631971 0.0 0.0 0.0 34.53561885213415" Properties=species:S:1:pos:R:3:initial_magmoms:R:1 pbc="T T T"
Si       1.35765747      -1.35746199       1.35631812       0.00000000
Si      -1.35705474       1.35760860       1.35683615       0.00000000
Si      -1.35780408      -1.35682668      -1.35697429       0.00000000
Si       1.35804843       1.35664749      -1.35794129       0.00000000
Si      -2.71305063      -0.00265527      -2.71315427       0.00000000
Si       0.00133578       2.71319724       2.71370684       0.00000000
Si      -0.00188964      -2.71422351       2.71363777       0.00000000
Si      -2.71399545      -0.00162900       2.71387952       0.00000000
Si       2.71498914      -2.71422351      -0.00027629       0.00000000
Si      -2.71471221      -2.71474316      -0.00041443       0.00000000
