10
Lattice="16.28999089631971 0.0 0.0 0.0 16.28999089631971 0.0 0.0 0.0 34.53561885213415" Properties=species:S:1:pos:R:3:initial_magmoms:R:1 pbc="T T T"
Si      -0.88096320      -1.84075371       1.18692081       0.00000000
Si       1.30070763      -1.41999930      -1.37883535       0.00000000
Si      -1.43871651       1.30416111      -1.35918458       0.00000000
Si       1.89762210       0.89686224       1.24846332       0.00000000
Si       2.70912474       2.61431694      -0.09580186       0.00000000
Si      -0.05958882       2.64924270      -2.73615500       0.00000000
Si       2.70075168      -2.68943013       0.08302367       0.00000000
Si       2.65210974      -0.06584418      -2.74136989       0.00000000
Si      -2.54423736      -0.97577100       2.68486958       0.00000000
Si       3.40778655      -0.95925294       1.57858948       0.00000000
