10
Lattice="16.28999089631971 0.0 0.0 0.0 16.28999089631971 0.0 0.0 0.0 34.53561885213415" Properties=species:S:1:pos:R:3:initial_magmoms:R:1 pbc="T T T"
Si      -0.93265137      -2.03908446      -0.44437006       0.00000000
Si       2.29032513       0.09360234       0.20787001       0.00000000
Si      -0.50901363       0.84879045       2.09493181       0.00000000
Si      -1.73255553       1.13614605      -1.16495615       0.00000000
Si      -0.21291030      -1.91515014      -2.95773566       0.00000000
Si       2.98524024      -1.05684633      -1.66278737       0.00000000
Si       0.54120267       2.98061388       2.01290967       0.00000000
Si      -1.72307475      -0.05903496      -3.28786182       0.00000000
Si      -3.17988945      -1.99402632       0.43097023       0.00000000
Si       1.23632955       3.63188808      -0.20793908       0.00000000
