10
Lattice="16.28999089631971 0.0 0.0 0.0 16.28999089631971 0.0 0.0 0.0 34.53561885213415" Properties=species:S:1:pos:R:3:initial_magmoms:R:1 pbc="T T T"
Si      -1.22487768      -0.35230383      -1.99826656       0.00000000
Si      -0.23618871       2.24471313       0.82571257       0.00000000
Si      -0.45910107      -1.73067729       1.62055028       0.00000000
Si       2.17118007      -0.23473890      -1.13701681       0.00000000
Si       2.04032250       2.74431114       0.44547520       0.00000000
Si      -1.49413509      -2.74088114      -2.02337397       0.00000000
Si       0.09873369       0.62708355      -3.70387812       0.00000000
Si      -1.55665611      -3.42173798       0.28291595       0.00000000
Si       2.91820689       1.96522560      -1.61284884       0.00000000
Si       1.77574032      -1.97693485       2.82653477       0.00000000
