10
Lattice="16.28999089631971 0.0 0.0 0.0 16.28999089631971 0.0 0.0 0.0 34.53561885213415" Properties=species:S:1:pos:R:3:initial_magmoms:R:1 pbc="T T T"
Si       1.35527913       1.35588186       1.35731965       0.00000000
Si       1.35801585      -1.35739683      -1.35666347       0.00000000
Si      -1.35597960      -1.35907470       1.35725058       0.00000000
Si      -1.35777150       1.35811359      -1.35704337       0.00000000
Si      -0.00172674      -2.71417464       2.71146202       0.00000000
Si       2.71427238      -0.00122175      -2.71394859       0.00000000
Si      -0.00008145       2.71450044      -2.71419034       0.00000000
Si      -2.71437012      -2.71466334       0.00037989       0.00000000
Si       2.71515204      -2.71420722       0.00020721       0.00000000
Si      -2.71459818       2.71534752       0.00069071       0.00000000
