10
Lattice="16.28999089631971 0.0 0.0 0.0 16.28999089631971 0.0 0.0 0.0 34.53561885213415" Properties=species:S:1:pos:R:3:initial_magmoms:R:1 pbc="T T T"
Si       1.67265720      -1.65814281       0.17171119       0.00000000
Si      -1.74693960      -1.33918461      -0.87872478       0.00000000
Si       0.62459118       2.17622997      -0.77639568       0.00000000
Si      -0.87531057       0.87483816       2.05266019       0.00000000
Si       2.34745416      -0.76851333       2.21546119       0.00000000
Si       1.19425248       1.11506679       3.21122724       0.00000000
Si      -1.33341795       2.98023921      -1.87418001       0.00000000
Si       0.53545230      -3.71882781       0.46830325       0.00000000
Si      -2.63728584      -0.30648006      -2.80498453       0.00000000
Si      -2.61026073       2.45270385       1.53535087       0.00000000
