10
Lattice="16.28999089631971 0.0 0.0 0.0 16.28999089631971 0.0 0.0 0.0 34.53561885213415" Properties=species:S:1:pos:R:3:initial_magmoms:R:1 pbc="T T T"
Si       1.32791193      -1.38891798      -1.34999119       0.00000000
Si      -1.34159553      -1.36176255       1.37773367       0.00000000
Si       1.37222073       1.34768799       1.37400382       0.00000000
Si      -1.24357860       1.44897921      -1.62105450       0.00000000
Si       2.42618373       0.38327112      -2.51931851       0.00000000
Si       0.67326570       2.17632771      -2.97884872       0.00000000
Si      -2.68294671       2.69545354      -0.00097390       0.00000000
Si      -2.68969077      -2.72675052       0.00757712       0.00000000
Si      -0.12614976      -2.65077396      -2.77771316       0.00000000
Si      -2.69847108      -0.00920385       2.73747081       0.00000000
