10
Lattice="16.28999089631971 0.0 0.0 0.0 16.28999089631971 0.0 0.0 0.0 34.53561885213415" Properties=species:S:1:pos:R:3:initial_magmoms:R:1 pbc="T T T"
Si      -1.35697329      -1.35715248       1.35731965       0.00000000
Si       1.35749457      -1.35700587      -1.35752686       0.00000000
Si      -1.35749457       1.35707103      -1.35766501       0.00000000
Si       1.35821133       1.35682668       1.35752686       0.00000000
Si       2.71396287       0.00008145      -2.71463930       0.00000000
Si      -2.71603170      -0.00127062      -2.71336148       0.00000000
Si      -2.71497285      -2.71463076       0.00048350       0.00000000
Si      -0.00045612      -2.71547784      -2.71439755       0.00000000
Si       2.71497285      -2.71490769       0.00044896       0.00000000
Si       2.71557558       2.71456729      -0.00003454       0.00000000
