10
Lattice="16.28999089631971 0.0 0.0 0.0 16.28999089631971 0.0 0.0 0.0 34.53561885213415" Properties=species:S:1:pos:R:3:initial_magmoms:R:1 pbc="T T T"
Si      -0.80407440      -1.70360820       1.40304484       0.00000000
Si       1.52963100      -1.17032247      -1.41316378       0.00000000
Si       0.51836409       1.87261762       1.40528965       0.00000000
Si      -1.71597231       0.92354526      -1.39834799       0.00000000
Si      -0.19091880       1.44436914      -3.06856052       0.00000000
Si      -1.57952727      -3.22911783      -0.28326130       0.00000000
Si      -0.28338084       3.60470726       0.03626242       0.00000000
Si       0.46931490      -3.32117262      -1.49701631       0.00000000
Si      -2.14055487      -0.49963059       3.01827663       0.00000000
Si       1.45182996      -0.14597469      -3.58089671       0.00000000
