10
Lattice="16.28999089631971 0.0 0.0 0.0 16.28999089631971 0.0 0.0 0.0 34.53561885213415" Properties=species:S:1:pos:R:3:initial_magmoms:R:1 pbc="T T T"
Si      -1.33191927      -1.34547859      -1.38667494       0.00000000
Si      -1.35164646       1.35583299       1.35935725       0.00000000
Si       1.36438398      -1.35830695       1.35835572       0.00000000
Si       1.35720787       1.35490446      -1.37787526       0.00000000
Si       2.62168884      -0.21230920      -2.66681780       0.00000000
Si      -2.70467757       2.71205694       0.00231389       0.00000000
Si      -2.70977634      -0.00099369       2.71584805       0.00000000
Si       0.00478926       2.71358820       2.71640062       0.00000000
Si      -2.71241532      -2.71888964      -0.00404067       0.00000000
Si       0.00565263      -2.71729322       2.71512280       0.00000000
