10
Lattice="16.28999089631971 0.0 0.0 0.0 16.28999089631971 0.0 0.0 0.0 34.53561885213415" Properties=species:S:1:pos:R:3:initial_magmoms:R:1 pbc="T T T"
Si      -1.26066681       0.30652893       1.99502021       0.00000000
Si       2.10978306      -0.48109257       1.03189033       0.00000000
Si       0.26523378       1.36332639      -2.02382293       0.00000000
Si      -1.16820477      -1.85380919      -1.10980273       0.00000000
Si      -0.32109219       2.75560011      -0.22126983       0.00000000
Si      -1.99500372       0.88058853      -2.59632021       0.00000000
Si      -3.38846661      -0.18565550       1.19199755       0.00000000
Si      -2.69325828      -2.37463307       0.56040980       0.00000000
Si       2.05529301      -0.00920385      -3.05025663       0.00000000
Si      -0.45892188      -1.42556071       3.36404744       0.00000000
