10
Lattice="16.28999089631971 0.0 0.0 0.0 16.28999089631971 0.0 0.0 0.0 34.53561885213415" Properties=species:S:1:pos:R:3:initial_magmoms:R:1 pbc="T T T"
Si      -1.38991167       1.22336271      -1.34623371       0.00000000
Si       1.24222653      -1.34092764      -1.40541743       0.00000000
Si      -1.35718506      -1.34890974       1.32487687       0.00000000
Si       1.35321030       1.36808307       1.32415162       0.00000000
Si       0.33848991       2.06153208      -2.78467209       0.00000000
Si       1.99879929       0.27834723      -2.94260356       0.00000000
Si      -0.44751888      -2.28333672      -2.71634937       0.00000000
Si      -2.44490094      -0.56845584      -2.58803441       0.00000000
Si      -0.00415395      -2.70513369       2.68192024       0.00000000
Si       2.70876636       0.00969255       2.68091870       0.00000000
