10
Lattice="16.28999089631971 0.0 0.0 0.0 16.28999089631971 0.0 0.0 0.0 34.53561885213415" Properties=species:S:1:pos:R:3:initial_magmoms:R:1 pbc="T T T"
Si      -1.34736219      -1.36668213      -1.37576168       0.00000000
Si       1.36519974       1.35557235      -1.37928432       0.00000000
Si       1.45168744      -1.26350127       1.43032799       0.00000000
Si      -1.57265289       1.24398585       1.37161740       0.00000000
Si      -2.70075168       2.69562033      -0.05315035       0.00000000
Si       2.71024128       2.69055414       0.01036069       0.00000000
Si      -2.71018359      -2.72032737      -0.00079432       0.00000000
Si      -2.70746316      -0.00373041      -2.73622408       0.00000000
Si       2.73734458      -2.70846662       0.00259017       0.00000000
Si       0.00760743       2.70863604      -2.73736375       0.00000000
