10
Lattice="16.28999089631971 0.0 0.0 0.0 16.28999089631971 0.0 0.0 0.0 34.53561885213415" Properties=species:S:1:pos:R:3:initial_magmoms:R:1 pbc="T T T"
Si      -0.69491511       1.15044867       1.87065738       0.00000000
Si       2.31254699       0.57410847       0.10750944       0.00000000
Si      -0.71640162       1.81006335      -1.62466003       0.00000000
Si      -0.80241282      -2.17784268       1.20228917       0.00000000
Si      -1.45973061      -0.07250679      -2.86010341       0.00000000
Si       1.85387109       2.84892552      -0.46505690       0.00000000
Si       2.99385180      -1.39370724      -1.22017863       0.00000000
Si      -3.19815054      -0.85830381      -1.29494829       0.00000000
Si      -2.98524024       1.05684633       1.66278737       0.00000000
Si       0.29473497       3.36235374       1.52450667       0.00000000
