10
Lattice="16.28999089631971 0.0 0.0 0.0 16.28999089631971 0.0 0.0 0.0 34.53561885213415" Properties=species:S:1:pos:R:3:initial_magmoms:R:1 pbc="T T T"
Si       1.26943083      -1.95960555      -0.17274726       0.00000000
Si      -0.67468293       0.27305298      -2.24678501       0.00000000
Si       0.91311966       2.07598131       0.67669129       0.00000000
Si      -1.62805518      -0.16223211       1.80914940       0.00000000
Si      -0.44040015      -3.33495396      -1.03572379       0.00000000
Si       1.19752677      -2.70324405       2.02855431       0.00000000
Si      -0.62727903       3.58008588      -0.35271247       0.00000000
Si      -0.95928552       2.58253515      -2.48539174       0.00000000
Si       0.72793494       2.14575138       3.09038704       0.00000000
Si       2.93123889       2.56883526      -0.54718265       0.00000000
