10
Lattice="16.28999089631971 0.0 0.0 0.0 16.28999089631971 0.0 0.0 0.0 34.53561885213415" Properties=species:S:1:pos:R:3:initial_magmoms:R:1 pbc="T T T"
Si      -1.72840158      -0.83816937       1.43843838       0.00000000
Si       1.66030938      -1.78318485      -0.15793147       0.00000000
Si       0.91712700       1.90969299       1.29196928       0.00000000
Si      -1.41995043      -0.74385027      -1.89932196       0.00000000
Si      -0.33848991      -2.06153208       2.78467209       0.00000000
Si       2.37364848       0.65984274       2.72862766       0.00000000
Si       0.90373662      -3.40245972       1.37925466       0.00000000
Si      -2.78339085      -2.62998792       0.19663767       0.00000000
Si       3.55860981      -0.86354919       1.26379511       0.00000000
Si      -1.77979653       0.98745093      -3.34039053       0.00000000
