10
Lattice="16.28999089631971 0.0 0.0 0.0 16.28999089631971 0.0 0.0 0.0 34.53561885213415" Properties=species:S:1:pos:R:3:initial_magmoms:R:1 pbc="T T T"
Si       0.90668511      -2.01725586      -0.82022141       0.00000000
Si      -1.72191816       1.03464306      -1.36325978       0.00000000
Si       1.43141859       0.70519410       1.85601427       0.00000000
Si      -1.92770973      -1.55202975       0.93805700       0.00000000
Si      -0.77450805      -3.43560987      -0.05770905       0.00000000
Si      -3.05839863       2.23862067       0.25197202       0.00000000
Si       3.31449372       1.75635522       0.87157590       0.00000000
Si      -2.49737103      -0.49086657      -3.04956592       0.00000000
Si      -0.91784376       2.73825126      -2.76630462       0.00000000
Si       1.09186983      -2.08702593      -3.23391716       0.00000000
