10
Lattice="16.28999089631971 0.0 0.0 0.0 16.28999089631971 0.0 0.0 0.0 34.53561885213415" Properties=species:S:1:pos:R:3:initial_magmoms:R:1 pbc="T T T"
Si      -1.68119316      -1.41835401       0.76251235       0.00000000
Si      -0.90668511       2.01725586       0.82022141       0.00000000
Si       0.18518472      -0.06977007      -2.41369575       0.00000000
Si       2.23619346      -0.52779600       0.90597340       0.00000000
Si      -2.83439484       0.46522611       1.75827841       0.00000000
Si      -2.35599012      -2.30798349      -1.28123764       0.00000000
Si       3.16299576      -1.72962333      -0.95394340       0.00000000
Si       3.29831842       1.68298506       0.91661037       0.00000000
Si      -0.72793494      -2.14575138      -3.09038704       0.00000000
Si       0.52473348       2.72244996       2.67623567       0.00000000
