10
Lattice="16.28999089631971 0.0 0.0 0.0 16.28999089631971 0.0 0.0 0.0 34.53561885213415" Properties=species:S:1:pos:R:3:initial_magmoms:R:1 pbc="T T T"
Si      -1.35646830      -1.35708732       1.35711244       0.00000000
Si       1.35876519       1.35713619       1.35697429       0.00000000
Si       1.35659862      -1.35405738      -1.36315617       0.00000000
Si      -1.35930276       1.35553977      -1.36218918       0.00000000
Si      -2.71396287      -0.00008145       2.71463930       0.00000000
Si       0.00161271       2.71448584       2.71460477       0.00000000
Si      -2.71441899      -2.71555929       0.00024175       0.00000000
Si       0.00100998      -2.71498914       2.71508826       0.00000000
Si      -2.71544526       2.71528835      -0.00055257       0.00000000
Si       2.71551991       0.00047241       2.71526094       0.00000000
