10
Lattice="16.28999089631971 0.0 0.0 0.0 16.28999089631971 0.0 0.0 0.0 34.53561885213415" Properties=species:S:1:pos:R:3:initial_magmoms:R:1 pbc="T T T"
Si      -1.35526284      -1.36995642       1.34246933       0.00000000
Si       1.35746755      -1.35630540      -1.36239639       0.00000000
Si      -1.35767376       1.35802304      -1.36236185       0.00000000
Si       1.37190049       1.37146880       1.37755753       0.00000000
Si      -2.71280628       2.71325330      -0.00079432       0.00000000
Si       2.71520810       2.71098899      -0.00338449       0.00000000
Si      -2.71248048      -2.71402803      -0.00652724       0.00000000
Si       2.71563164      -2.71296918      -0.00075978       0.00000000
Si      -0.00060953      -2.71375110      -2.71885265       0.00000000
Si      -2.71451673       0.00026233      -2.71950883       0.00000000
