10
Lattice="16.28999089631971 0.0 0.0 0.0 16.28999089631971 0.0 0.0 0.0 34.53561885213415" Properties=species:S:1:pos:R:3:initial_magmoms:R:1 pbc="T T T"
Si       2.20762894       0.65749698      -0.52331852       0.00000000
Si      -1.58951208      -1.38049605      -1.08182887       0.00000000
Si      -0.58813579       2.11473522      -0.89664877       0.00000000
Si      -0.11229674      -0.42854103       2.35305117       0.00000000
Si      -0.87746085       1.85766273       2.39590990       0.00000000
Si       1.56249607       2.41126209      -1.97163958       0.00000000
Si      -3.49896072      -0.51807087       0.08671899       0.00000000
Si      -1.30389233      -3.29538555       0.33264727       0.00000000
Si       2.82404254       2.03613597       1.26839038       0.00000000
Si      -1.53484690      -2.36330433       2.50300491       0.00000000
