10
Lattice="16.28999089631971 0.0 0.0 0.0 16.28999089631971 0.0 0.0 0.0 34.53561885213415" Properties=species:S:1:pos:R:3:initial_magmoms:R:1 pbc="T T T"
Si      -1.36624393      -1.34672688       1.37670105       0.00000000
Si       1.34760654       1.37096640       1.37645930       0.00000000
Si      -1.34011640       1.37481084      -1.38858476       0.00000000
Si       1.25099055      -1.45772694      -1.51354161       0.00000000
Si       2.69830818      -2.71011843      -0.01276437       0.00000000
Si      -2.72229425      -2.70656721       0.00002763       0.00000000
Si       2.69555517       2.73333168       0.00208250       0.00000000
Si      -0.00941562      -2.70316260       2.73726705       0.00000000
Si       2.70539433       0.01151703       2.73630005       0.00000000
Si      -2.71751870       2.73717612      -0.00054221       0.00000000
