10
Lattice="16.28999089631971 0.0 0.0 0.0 16.28999089631971 0.0 0.0 0.0 34.53561885213415" Properties=species:S:1:pos:R:3:initial_magmoms:R:1 pbc="T T T"
Si      -1.35734959      -1.35713619       1.35697429       0.00000000
Si       1.35786924       1.35767376       1.35649080       0.00000000
Si      -1.35682831       1.35643572      -1.36056600       0.00000000
Si       1.36129014      -1.35685926      -1.36215464       0.00000000
Si      -2.71395545       2.71445157       0.00027629       0.00000000
Si      -2.71443191      -0.00006516       2.71425941       0.00000000
Si       0.00004887      -2.71487511       2.71460477       0.00000000
Si       2.71480995       2.71467963      -0.00096700       0.00000000
Si       0.00029322       2.71494027       2.71474291       0.00000000
Si       2.71526607       0.00039096       2.71470837       0.00000000
