10
Lattice="16.28999089631971 0.0 0.0 0.0 16.28999089631971 0.0 0.0 0.0 34.53561885213415" Properties=species:S:1:pos:R:3:initial_magmoms:R:1 pbc="T T T"
Si      -0.72216828      -1.78794153       1.34233118       0.00000000
Si       0.09581778      -0.11580561      -2.36683089       0.00000000
Si      -1.15284330       2.08647207       0.11272432       0.00000000
Si       2.27512656       0.00395847       0.78720534       0.00000000
Si      -0.70475427      -0.79472394       3.46458068       0.00000000
Si      -2.73566930       1.65068199      -1.73006279       0.00000000
Si       2.31166503       0.00421911      -2.88113561       0.00000000
Si       0.70164288      -3.55923468       0.83907786       0.00000000
Si       2.32611426       1.78878861       2.33001590       0.00000000
Si       0.27205929      -2.35126602      -3.02970793       0.00000000
