10
Lattice="16.28999089631971 0.0 0.0 0.0 16.28999089631971 0.0 0.0 0.0 34.53561885213415" Properties=species:S:1:pos:R:3:initial_magmoms:R:1 pbc="T T T"
Si      -1.35594539      -1.35614250       1.35756140       0.00000000
Si       1.36011726      -1.35265644      -1.35759594       0.00000000
Si      -1.35182891       1.36026387      -1.36094589       0.00000000
Si       1.35883035       1.35915615       1.35721604       0.00000000
Si       0.00397476      -2.72430155      -2.68683121       0.00000000
Si      -2.71216313      -2.71244578      -0.00013814       0.00000000
Si      -2.71291354       0.00102627       2.71432848       0.00000000
Si       0.00174303      -2.71301806       2.71457023       0.00000000
Si       2.71583622      -2.71344847      -0.00058711       0.00000000
Si       2.71526607       2.71415835      -0.00024175       0.00000000
