10
Lattice="16.28999089631971 0.0 0.0 0.0 16.28999089631971 0.0 0.0 0.0 34.53561885213415" Properties=species:S:1:pos:R:3:initial_magmoms:R:1 pbc="T T T"
Si      -1.34421407      -1.35624024      -1.39983302       0.00000000
Si       1.36903115       1.36233270      -1.39807170       0.00000000
Si       1.41055436      -1.38466629       1.50558115       0.00000000
Si      -1.52798964       1.33775109       1.45205091       0.00000000
Si      -2.70122802      -2.69330715      -0.02009974       0.00000000
Si      -2.70186333       2.70534546      -0.05484259       0.00000000
Si       2.71706123      -2.69718417      -0.03298153       0.00000000
Si       2.70220475       2.72140740      -0.02904447       0.00000000
Si      -2.70621276       0.00221544      -2.75905213       0.00000000
Si       0.00920059      -2.71104696      -2.75898306       0.00000000
