10
Lattice="16.28999089631971 0.0 0.0 0.0 16.28999089631971 0.0 0.0 0.0 34.53561885213415" Properties=species:S:1:pos:R:3:initial_magmoms:R:1 pbc="T T T"
Si       1.12717026       1.73504857       0.92258504       0.00000000
Si      -2.22446792      -0.57272382       0.48467315       0.00000000
Si       1.50951285      -1.54098513      -0.96126495       0.00000000
Si      -2.69752202      -0.16120584      -1.82299820       0.00000000
Si      -1.46325902      -2.67097356       1.30275334       0.00000000
Si      -1.27814924       1.55755436      -2.70559096       0.00000000
Si       2.25069156       2.26943225      -1.08776899       0.00000000
Si      -0.11013669      -3.38296059      -0.58413578       0.00000000
Si       1.10594439       1.47821717      -3.04383300       0.00000000
Si       2.28302721       0.89796996       2.78940896       0.00000000
