10
Lattice="16.28999089631971 0.0 0.0 0.0 16.28999089631971 0.0 0.0 0.0 34.53561885213415" Properties=species:S:1:pos:R:3:initial_magmoms:R:1 pbc="T T T"
Si      -1.33698546       1.91194101      -0.38165334       0.00000000
Si      -1.28637243      -1.91040975      -0.57121946       0.00000000
Si       1.60896330       0.33663285      -1.72146342       0.00000000
Si       0.68352840       0.03477915       2.42605951       0.00000000
Si       1.70005698      -2.12258700       2.17512356       0.00000000
Si      -2.66320975      -1.93785840       1.29891989       0.00000000
Si       0.25099632       1.00312191      -3.58414306       0.00000000
Si      -0.23943042       3.60300169       0.95598100       0.00000000
Si      -2.43499662      -1.41332040      -2.55473930       0.00000000
Si       2.94026355      -1.66669506      -1.76622161       0.00000000
