10
Lattice="16.28999089631971 0.0 0.0 0.0 16.28999089631971 0.0 0.0 0.0 34.397273925272025" Properties=species:S:1:pos:R:3:initial_magmoms:R:1 pbc="T T T"
Si       1.88716392       0.91610073       1.01059178       0.00000000
Si       0.13295898       0.25977663      -2.33126489       0.00000000
Si      -1.05313221      -1.88982896       0.97074596       0.00000000
Si      -1.81287500       1.56348162      -0.32115587       0.00000000
Si       0.41365197       2.15177868       2.40647866       0.00000000
Si      -2.34532327      -0.55110699       2.38985789       0.00000000
Si      -1.73647490       1.63740564      -2.72060785       0.00000000
Si      -0.83183745       3.44298924       0.93352121       0.00000000
Si       2.72938950       2.52087750      -0.60706617       0.00000000
Si      -0.48202110      -1.89184241      -3.30990227       0.00000000
