10
Lattice="16.28999089631971 0.0 0.0 0.0 16.28999089631971 0.0 0.0 0.0 34.397273925272025" Properties=species:S:1:pos:R:3:initial_magmoms:R:1 pbc="T T T"
Si       1.91170806       0.05662404      -1.34637885       0.00000000
Si      -1.57742164      -1.51563789      -0.84352482       0.00000000
Si       0.15503845      -0.69004440       2.27572491       0.00000000
Si      -0.81540802       2.22142073      -0.41252674       0.00000000
Si      -2.86192072      -0.04466718      -2.12220980       0.00000000
Si      -0.73418608       3.11621740       1.81982319       0.00000000
Si       0.99667596       0.22302639      -3.57773125       0.00000000
Si       0.49000972      -3.06426303       2.09355685       0.00000000
Si      -3.12536260       1.90251140      -0.85766211       0.00000000
Si       3.10845291       2.02324148      -0.80001224       0.00000000
