10
Lattice="16.28999089631971 0.0 0.0 0.0 16.28999089631971 0.0 0.0 0.0 34.397273925272025" Properties=species:S:1:pos:R:3:initial_magmoms:R:1 pbc="T T T"
Si      -1.52758546       1.03711329       1.49762375       0.00000000
Si       1.17626669      -1.49320656       1.49617906       0.00000000
Si      -0.92294905      -1.35044100      -1.81696822       0.00000000
Si       0.32263811       2.34377655      -1.20662265       0.00000000
Si      -3.04236180      -1.45577214      -0.81449350       0.00000000
Si      -2.97918918       2.25531696      -0.00488442       0.00000000
Si      -1.81217358       2.45582080      -2.27286994       0.00000000
Si       1.94235281      -3.32141697       0.23988672       0.00000000
Si      -0.24847300       2.34578999       3.07402559       0.00000000
Si       2.62474091      -0.37489806       3.00684424       0.00000000
