10
Lattice="16.28999089631971 0.0 0.0 0.0 16.28999089631971 0.0 0.0 0.0 34.397273925272025" Properties=species:S:1:pos:R:3:initial_magmoms:R:1 pbc="T T T"
Si       1.06259670       1.66109505       1.38046657       0.00000000
Si      -1.59621963      -1.20254753       1.35384306       0.00000000
Si      -1.39760707       1.28830980      -1.49112266       0.00000000
Si       1.31681844      -1.42816403      -1.47873963       0.00000000
Si       2.68146432       2.70697821      -0.06996409       0.00000000
Si       2.72754873      -2.77396238       0.04365017       0.00000000
Si      -2.77564400       2.72844843      -0.11633165       0.00000000
Si      -2.68976407      -2.82620441       0.02287420       0.00000000
Si      -0.04302189       2.64968628      -2.87478817       0.00000000
Si       2.67357996      -0.06904855      -2.87365306       0.00000000
