10
Lattice="16.28999089631971 0.0 0.0 0.0 16.28999089631971 0.0 0.0 0.0 34.397273925272025" Properties=species:S:1:pos:R:3:initial_magmoms:R:1 pbc="T T T"
Si      -1.35081567       1.35459495      -1.35920904       0.00000000
Si      -1.35130437      -1.35094110       1.37069773       0.00000000
Si       1.36533006      -1.36063039      -1.35711080       0.00000000
Si       1.38212505       1.35348723       1.36285515       0.00000000
Si       0.26854065      -2.36584231       2.79674071       0.00000000
Si      -2.70902700       2.71265967      -0.00178866       0.00000000
Si      -2.70775638      -0.00345348      -2.71573509       0.00000000
Si       0.00643455       2.71132389      -2.71587268       0.00000000
Si      -2.70521514      -2.72233492       0.00168547       0.00000000
Si       2.72258028       2.70653463       0.00165107       0.00000000
