10
Lattice="16.28999089631971 0.0 0.0 0.0 16.28999089631971 0.0 0.0 0.0 34.397273925272025" Properties=species:S:1:pos:R:3:initial_magmoms:R:1 pbc="T T T"
Si      -1.07715996      -1.13573391       1.84630911       0.00000000
Si       2.39441823      -0.34872003      -0.33509843       0.00000000
Si      -0.36421182       2.40228630       0.40169159       0.00000000
Si      -0.81099765      -1.25074131      -2.04436872       0.00000000
Si      -3.08876319       0.21739005       2.00952426       0.00000000
Si      -2.53027683       2.38741353       1.23606673       0.00000000
Si      -1.53196047      -3.27059936       0.80266084       0.00000000
Si       0.56710377       1.77139089      -3.22254481       0.00000000
Si       2.39223537       0.10254555      -2.85332426       0.00000000
Si      -0.69537123       3.17855367      -1.82573953       0.00000000
