10
Lattice="16.28999089631971 0.0 0.0 0.0 16.28999089631971 0.0 0.0 0.0 34.397273925272025" Properties=species:S:1:pos:R:3:initial_magmoms:R:1 pbc="T T T"
Si       1.02289797      -1.58309804       1.36698283       0.00000000
Si      -2.16697725       0.75206043       0.56136382       0.00000000
Si       1.33600806       1.85378571       0.75619009       0.00000000
Si      -0.54920106      -0.68461983      -2.26089968       0.00000000
Si      -1.95822090       2.50841565      -0.97430333       0.00000000
Si      -0.78213177       1.58794920      -2.83612561       0.00000000
Si       2.86933689      -2.09705080      -0.22296325       0.00000000
Si      -3.42233352      -1.13740038       0.05520766       0.00000000
Si       0.97974576      -0.31584681       3.49462739       0.00000000
Si       0.73303371       2.02113288       3.03851929       0.00000000
