10
Lattice="16.28999089631971 0.0 0.0 0.0 16.28999089631971 0.0 0.0 0.0 34.397273925272025" Properties=species:S:1:pos:R:3:initial_magmoms:R:1 pbc="T T T"
Si      -1.96261920      -0.58573953      -1.22722662       0.00000000
Si       1.82959506       0.26718858      -1.51176103       0.00000000
Si      -0.69649524       2.11209624       0.92986203       0.00000000
Si       0.55750896      -2.20394692       1.02854786       0.00000000
Si      -2.89714392       1.17551898       1.48954038       0.00000000
Si      -2.09947149       1.55867607      -2.27297313       0.00000000
Si      -0.69170598       3.18912588      -1.35308632       0.00000000
Si       3.55206708      -0.65741553      -0.16029139       0.00000000
Si       1.58288301       2.60416827      -1.96786914       0.00000000
Si      -3.51212400      -0.97610006       0.51090300       0.00000000
