10
Lattice="16.28999089631971 0.0 0.0 0.0 16.28999089631971 0.0 0.0 0.0 34.397273925272025" Properties=species:S:1:pos:R:3:initial_magmoms:R:1 pbc="T T T"
Si       1.34304534       1.35852084       1.38160512       0.00000000
Si      -1.37223702      -1.35400851       1.38188029       0.00000000
Si      -1.40022324       1.28940237      -1.47027446       0.00000000
Si       1.40458896      -1.37081979      -1.45838675       0.00000000
Si      -2.09134278      -0.60681879      -2.68118658       0.00000000
Si      -0.39180708      -2.35608786      -2.97665029       0.00000000
Si       2.70032814       2.71534752      -0.00014447       0.00000000
Si       2.70560610      -2.71841004       0.00963812       0.00000000
Si      -2.72137482       2.70971118      -0.00114199       0.00000000
Si      -2.70754461      -2.72518668       0.03689454       0.00000000
