10
Lattice="16.28999089631971 0.0 0.0 0.0 16.28999089631971 0.0 0.0 0.0 34.397273925272025" Properties=species:S:1:pos:R:3:initial_magmoms:R:1 pbc="T T T"
Si       1.05611328       1.49796324       1.37162646       0.00000000
Si      -0.24296535      -2.29711806      -0.29468161       0.00000000
Si       1.17926568       1.08076005      -1.92046967       0.00000000
Si      -2.48487660       0.00990432       0.32250902       0.00000000
Si      -2.06687520      -1.06605018      -1.72089658       0.00000000
Si      -0.76595580       0.43046325      -3.04405725       0.00000000
Si       3.09873267      -0.46563336      -1.67810634       0.00000000
Si       0.08819406      -3.07338543       1.93274950       0.00000000
Si       3.39535728       1.01825532       0.80988427       0.00000000
Si       0.89867043       0.49273992       3.51051894       0.00000000
