10
Lattice="16.28999089631971 0.0 0.0 0.0 16.28999089631971 0.0 0.0 0.0 34.397273925272025" Properties=species:S:1:pos:R:3:initial_magmoms:R:1 pbc="T T T"
Si      -1.17087633       1.26386454      -1.55874774       0.00000000
Si      -0.67991202       0.36343479       2.19293063       0.00000000
Si      -0.38633364      -2.25330026      -0.48878554       0.00000000
Si       2.19322044       0.81621534      -0.12317671       0.00000000
Si       0.57544425       2.25289560       2.69908680       0.00000000
Si      -2.02350145      -2.83944704       1.19121266       0.00000000
Si       0.04870710       0.94765935      -3.59861041       0.00000000
Si       1.96028973       3.08878437      -0.69840264       0.00000000
Si       1.76280606      -3.29612090      -0.08121201       0.00000000
Si      -3.39577023       0.43146183      -1.59462411       0.00000000
