10
Lattice="16.28999089631971 0.0 0.0 0.0 16.28999089631971 0.0 0.0 0.0 34.397273925272025" Properties=species:S:1:pos:R:3:initial_magmoms:R:1 pbc="T T T"
Si       0.69649524      -2.11209624      -0.92986203       0.00000000
Si      -2.20064868      -0.93657726       0.55967836       0.00000000
Si       0.00478926       1.07702964      -2.28294835       0.00000000
Si       0.39578184       1.32452361       2.28387707       0.00000000
Si      -1.40297625      -0.55342017      -3.20283516       0.00000000
Si      -1.26612396      -2.69783577      -2.15708865       0.00000000
Si       2.27937825       0.49207203      -2.89773117       0.00000000
Si      -2.33360766      -1.19635389       2.89094324       0.00000000
Si      -0.44644374      -0.28025316       3.90153503       0.00000000
Si       2.52609030      -1.84490766      -2.44162306       0.00000000
