10
Lattice="16.28999089631971 0.0 0.0 0.0 16.28999089631971 0.0 0.0 0.0 34.397273925272025" Properties=species:S:1:pos:R:3:initial_magmoms:R:1 pbc="T T T"
Si       0.96876630      -1.18832292      -1.75071903       0.00000000
Si       1.63010772       1.59738111       0.53484351       0.00000000
Si      -1.78178391       1.09463913      -1.06229160       0.00000000
Si      -1.07224038      -1.07171910       1.83189664       0.00000000
Si       0.51096843       0.25195743      -3.57865998       0.00000000
Si       0.29234034       3.20680053       1.68223402       0.00000000
Si      -1.90935090       0.08575056      -3.18415743       0.00000000
Si      -0.29497932      -3.12880401      -2.05338081       0.00000000
Si      -0.94530870       0.34811730       3.71284382       0.00000000
Si       3.21315363      -1.71382203      -1.41345357       0.00000000
