10
Lattice="16.28999089631971 0.0 0.0 0.0 16.28999089631971 0.0 0.0 0.0 34.397273925272025" Properties=species:S:1:pos:R:3:initial_magmoms:R:1 pbc="T T T"
Si       1.35428544      -1.35130437       1.36113529       0.00000000
Si      -1.35394335       1.35399222       1.36065373       0.00000000
Si       1.35772263       1.35736425      -1.35711080       0.00000000
Si      -1.35710361      -1.35775521      -1.35824591       0.00000000
Si      -2.71344485      -2.71560816       0.00182306       0.00000000
Si       0.00074934       2.71430496      -2.71545991       0.00000000
Si       2.71464705       2.71526607      -0.00058475       0.00000000
Si      -2.71445809      -0.00055386      -2.71545991       0.00000000
Si      -2.71559024       2.71466334      -0.00068795       0.00000000
Si       0.00061902      -2.71539639      -2.71542551       0.00000000
