10
Lattice="16.28999089631971 0.0 0.0 0.0 16.28999089631971 0.0 0.0 0.0 34.397273925272025" Properties=species:S:1:pos:R:3:initial_magmoms:R:1 pbc="T T T"
Si       1.61544672       1.26310446      -1.03387944       0.00000000
Si       1.28829465      -0.91412964       1.79323408       0.00000000
Si      -1.30434030      -1.79830197      -0.91163146       0.00000000
Si      -1.14629472      -0.60421239       2.09200897       0.00000000
Si      -1.00584234       1.82328661       1.41015143       0.00000000
Si      -0.00439830       2.27800567      -2.45992242       0.00000000
Si      -1.86733899      -2.82962187       1.37248639       0.00000000
Si      -2.71507059      -0.45250362      -2.43402126       0.00000000
Si       2.71094922      -0.42381693      -2.45435006       0.00000000
Si       2.19739068       3.17657348       0.60119589       0.00000000
