10
Lattice="16.28999089631971 0.0 0.0 0.0 16.28999089631971 0.0 0.0 0.0 34.397273925272025" Properties=species:S:1:pos:R:3:initial_magmoms:R:1 pbc="T T T"
Si       1.35700587      -1.35738189      -1.35790194       0.00000000
Si      -1.35716877       1.35751018      -1.35766116       0.00000000
Si      -1.35848826      -1.35690948       1.35697321       0.00000000
Si       1.35843939       1.35768774       1.35817712       0.00000000
Si       0.00086337      -2.71386648      -2.71508154       0.00000000
Si      -2.71210581      -0.00401678       2.71697339       0.00000000
Si      -2.71464705       2.71486466      -0.00044716       0.00000000
Si       2.71471221       2.71502756      -0.00024078       0.00000000
Si       2.71523349      -2.71463211      -0.00048156       0.00000000
Si      -2.71464705       0.00014864      -2.71542551       0.00000000
