10
Lattice="16.28999089631971 0.0 0.0 0.0 16.28999089631971 0.0 0.0 0.0 34.397273925272025" Properties=species:S:1:pos:R:3:initial_magmoms:R:1 pbc="T T T"
Si       1.35653346       1.35630724       1.35687002       0.00000000
Si       1.35490446      -1.35901651      -1.35831471       0.00000000
Si      -1.35866745      -1.35904909       1.35669804       0.00000000
Si      -1.36029645       1.35713314      -1.35914024       0.00000000
Si       0.00050499      -2.70235507      -2.72299636       0.00000000
Si       2.71401174       2.71217118      -0.00034397       0.00000000
Si      -2.70713736      -0.00323239      -2.71928145       0.00000000
Si      -0.00096111       2.71336035       2.71435920       0.00000000
Si       2.71393029      -0.00210406       2.71411842       0.00000000
Si      -2.71437012       2.71384905      -0.00010319       0.00000000
