10
Lattice="16.28999089631971 0.0 0.0 0.0 16.28999089631971 0.0 0.0 0.0 34.397273925272025" Properties=species:S:1:pos:R:3:initial_magmoms:R:1 pbc="T T T"
Si      -1.35729909       1.35697329      -1.35755797       0.00000000
Si      -1.35627282      -1.35733982       1.35841790       0.00000000
Si       1.35749457      -1.35705311      -1.35748917       0.00000000
Si       1.35884664       1.35830907       1.35645726       0.00000000
Si       0.00097740       2.70982521       2.71717977       0.00000000
Si       0.00096111      -2.71336035      -2.71435920       0.00000000
Si      -2.71340901       0.00048870      -2.71446239       0.00000000
Si       2.71497285      -0.00118917      -2.71470317       0.00000000
Si      -2.71471221      -2.71502756       0.00024078       0.00000000
Si      -2.71516833       2.71461447      -0.00034397       0.00000000
