10
Lattice="16.28999089631971 0.0 0.0 0.0 16.28999089631971 0.0 0.0 0.0 34.397273925272025" Properties=species:S:1:pos:R:3:initial_magmoms:R:1 pbc="T T T"
Si       0.78234354      -0.22358025      -2.17205147       0.00000000
Si       1.40776551       1.63044981       0.91988681       0.00000000
Si      -2.22840521       0.74495799      -0.18739645       0.00000000
Si       0.13685229      -2.14441560       1.04574651       0.00000000
Si      -0.47301273      -2.11304106      -2.67820764       0.00000000
Si       2.09947149      -1.55867607       2.27297313       0.00000000
Si       1.40297625       0.55342017       3.20283516       0.00000000
Si       0.21383883       3.58985988       0.17755883       0.00000000
Si       0.29517480      -3.51570780      -0.90220660       0.00000000
Si      -2.14796356       3.05541756      -0.11017453       0.00000000
