10
Lattice="16.28999089631971 0.0 0.0 0.0 16.28999089631971 0.0 0.0 0.0 34.397273925272025" Properties=species:S:1:pos:R:3:initial_magmoms:R:1 pbc="T T T"
Si       2.13651495      -0.82847682       0.62169668       0.00000000
Si      -1.39753539      -0.30845115       1.93360944       0.00000000
Si       0.01707192       2.41057791      -0.29210181       0.00000000
Si      -0.89871930      -1.27047339      -2.05881558       0.00000000
Si      -2.25917865       2.75802732       0.18113615       0.00000000
Si       3.56674437       1.06093512       0.28570392       0.00000000
Si      -2.32210692       1.85606631       2.35824402       0.00000000
Si      -3.29313753      -0.92175336      -1.72371715       0.00000000
Si       1.90438245      -1.68404880       2.91032058       0.00000000
Si      -0.17037711      -0.88962948       3.85036420       0.00000000
