10
Lattice="16.28999089631971 0.0 0.0 0.0 16.28999089631971 0.0 0.0 0.0 34.397273925272025" Properties=species:S:1:pos:R:3:initial_magmoms:R:1 pbc="T T T"
Si       1.22715828      -0.58117833       1.91675476       0.00000000
Si      -1.62507411      -1.69561470       0.15489101       0.00000000
Si      -0.92457153       2.16451746       0.42463458       0.00000000
Si       1.39753539       0.30845115      -1.93360944       0.00000000
Si      -2.83985199      -0.52735617       1.82763138       0.00000000
Si       1.73903895       1.61354079       2.64484227       0.00000000
Si      -0.86164326       3.06647847      -1.75247329       0.00000000
Si       3.30191784      -1.37559765       0.97671114       0.00000000
Si      -3.07278270       1.74521286       1.25240544       0.00000000
Si       1.41460731       2.71902906      -2.22571125       0.00000000
