10
Lattice="16.28999089631971 0.0 0.0 0.0 16.28999089631971 0.0 0.0 0.0 34.397273925272025" Properties=species:S:1:pos:R:3:initial_magmoms:R:1 pbc="T T T"
Si      -1.35610992      -1.35648459      -1.35690442       0.00000000
Si       1.35729909      -1.35697329       1.35755797       0.00000000
Si      -1.35786924       1.35764118       1.35721400       0.00000000
Si       1.35786924       1.35816246      -1.35748917       0.00000000
Si       2.71479366      -2.71402640       0.00006879       0.00000000
Si      -2.71511946       0.00091224       2.71387763       0.00000000
Si      -2.71458189      -2.71449067       0.00013759       0.00000000
Si      -0.00203625      -2.71320050      -2.71594147       0.00000000
Si       2.71614573       0.00133578       2.71401522       0.00000000
Si      -2.71479366       2.71542897       0.00034397       0.00000000
