10
Lattice="16.28999089631971 0.0 0.0 0.0 16.28999089631971 0.0 0.0 0.0 34.397273925272025" Properties=species:S:1:pos:R:3:initial_magmoms:R:1 pbc="T T T"
Si      -1.22227128       1.34495127      -1.51103869       0.00000000
Si       1.34016201      -1.05650424      -1.65461299       0.00000000
Si       1.02333780       1.62074097       1.41094257       0.00000000
Si      -1.10985399      -1.80108756       1.13060463       0.00000000
Si       0.62732790       3.66432147       0.24587185       0.00000000
Si       0.33609528       1.86439050      -3.28036666       0.00000000
Si      -1.67127255       3.39646500      -0.47846635       0.00000000
Si       2.94821307      -2.41078968      -0.53659777       0.00000000
Si      -3.03412653       0.09743049      -2.36426355       0.00000000
Si      -0.17018163      -2.53864989      -2.91210924       0.00000000
