10
Lattice="16.28999089631971 0.0 0.0 0.0 16.28999089631971 0.0 0.0 0.0 34.397273925272025" Properties=species:S:1:pos:R:3:initial_magmoms:R:1 pbc="T T T"
Si       1.23250140      -1.43167923       1.36276916       0.00000000
Si      -1.31716053      -1.39849650      -1.39649712       0.00000000
Si      -1.49980401       1.29969765       1.34191064       0.00000000
Si       1.31222466       1.54437345      -1.34098336       0.00000000
Si       2.57745267      -0.05820417       2.72355703       0.00000000
Si       2.51032158      -2.79914328      -0.15317803       0.00000000
Si      -0.14411763       2.65844655       2.72035808       0.00000000
Si       2.68359831       2.76175773       0.04899206       0.00000000
Si      -0.14336829      -2.76957693       2.72190596       0.00000000
Si      -2.85708681      -0.05712903       2.72366022       0.00000000
