10
Lattice="16.28999089631971 0.0 0.0 0.0 16.28999089631971 0.0 0.0 0.0 34.397273925272025" Properties=species:S:1:pos:R:3:initial_magmoms:R:1 pbc="T T T"
Si       1.37137365       1.21738428       1.38997542       0.00000000
Si      -1.30249953       1.43593092      -1.39762735       0.00000000
Si       1.67523102      -0.87316029      -1.48516846       0.00000000
Si      -1.31222466      -1.54437345       1.34098336       0.00000000
Si      -1.78204455      -0.28786059      -2.90398801       0.00000000
Si       0.23034060      -1.49193594      -3.32532045       0.00000000
Si      -0.09373266       2.48564223       2.69965236       0.00000000
Si       0.38384127       2.30622417      -2.90357524       0.00000000
Si       2.62747926      -0.25076826       2.70099385       0.00000000
Si       2.61804735      -2.80991097      -0.17758976       0.00000000
