10
Lattice="16.28999089631971 0.0 0.0 0.0 16.28999089631971 0.0 0.0 0.0 34.397273925272025" Properties=species:S:1:pos:R:3:initial_magmoms:R:1 pbc="T T T"
Si      -1.35505107       1.35327460       1.35862428       0.00000000
Si       1.35641943       1.35608167      -1.35631967       0.00000000
Si      -1.35795069      -1.35811359      -1.35631967       0.00000000
Si       1.35503478      -1.35985662       1.35900265       0.00000000
Si       2.71438641      -0.00071676      -2.71336168       0.00000000
Si      -0.00097740       2.71449297      -2.71356806       0.00000000
Si      -2.71474479       2.71420626       0.00233902       0.00000000
Si       2.71479366       2.71415902       0.00216703       0.00000000
Si       2.71523349      -2.71456560      -0.00051596       0.00000000
Si      -2.71327869      -2.71660185       0.00092873       0.00000000
