10
Lattice="16.28999089631971 0.0 0.0 0.0 16.28999089631971 0.0 0.0 0.0 34.397273925272025" Properties=species:S:1:pos:R:3:initial_magmoms:R:1 pbc="T T T"
Si       2.13829056       0.56239596       0.86068907       0.00000000
Si      -0.27396522       1.56006072      -1.76661058       0.00000000
Si      -1.89410346      -0.68817105       1.30376060       0.00000000
Si       0.42381693      -2.02375557      -1.23159508       0.00000000
Si       2.01947130       1.25457435      -2.32718327       0.00000000
Si       2.41175079      -1.19584890      -2.10889804       0.00000000
Si      -1.68391359       0.25295112      -3.12702352       0.00000000
Si       3.41355321      -1.23147513       0.06690274       0.00000000
Si      -1.10058498      -1.99246248      -2.99053506       0.00000000
Si       3.02803407       2.38741094      -0.29643587       0.00000000
