10
Lattice="16.28999089631971 0.0 0.0 0.0 16.28999089631971 0.0 0.0 0.0 34.397273925272025" Properties=species:S:1:pos:R:3:initial_magmoms:R:1 pbc="T T T"
Si      -1.35653346      -1.35630724      -1.35687002       0.00000000
Si       1.35747828       1.35586394      -1.35721400       0.00000000
Si      -1.35749457       1.35705311       1.35748917       0.00000000
Si       1.35739683      -1.35841130       1.35724839       0.00000000
Si       2.71507059       0.00207372      -2.71205458       0.00000000
Si       0.00097740      -2.71449297       2.71356806       0.00000000
Si      -2.71479366       2.71402640      -0.00006879       0.00000000
Si       2.71508688       2.71407527       0.00003440       0.00000000
Si       0.00135207       2.71536218       2.71394643       0.00000000
Si      -2.71376739      -0.00028670       2.71590708       0.00000000
