10
Lattice="16.28999089631971 0.0 0.0 0.0 16.28999089631971 0.0 0.0 0.0 34.397273925272025" Properties=species:S:1:pos:R:3:initial_magmoms:R:1 pbc="T T T"
Si       1.35663209       1.35776173      -1.35803953       0.00000000
Si       1.35532984      -1.35930343       1.35982819       0.00000000
Si      -1.35837423      -1.35807735      -1.35848670       0.00000000
Si      -1.36129014       1.36131295       1.36141047       0.00000000
Si       2.71328751      -2.71515271      -0.00113511       0.00000000
Si      -2.71479366      -2.71415902      -0.00216703       0.00000000
Si       2.71366380       0.00017593      -2.71549431       0.00000000
Si      -0.00068418       2.71440922      -2.71570069       0.00000000
Si      -2.71441899       2.71569613      -0.00178866       0.00000000
Si      -0.00040725      -2.71487578      -2.71552870       0.00000000
