10
Lattice="16.28999089631971 0.0 0.0 0.0 16.28999089631971 0.0 0.0 0.0 34.397273925272025" Properties=species:S:1:pos:R:3:initial_magmoms:R:1 pbc="T T T"
Si      -0.88974351      -1.82501498       1.15712494       0.00000000
Si       2.33846208      -0.23827758      -0.27830850       0.00000000
Si      -0.76543452       1.94697428       1.17611225       0.00000000
Si      -1.00856277      -1.13283659      -2.03074739       0.00000000
Si      -0.52186644      -1.26134840       3.37561276       0.00000000
Si       0.38551914      -3.61888607       0.36333861       0.00000000
Si      -3.30199929      -0.82735022      -1.47017471       0.00000000
Si      -0.99756702       1.09140231       3.46473615       0.00000000
Si       3.24011358      -0.60160340       1.89126637       0.00000000
Si      -3.02803407      -2.38741094       0.29643587       0.00000000
