10
Lattice="16.28999089631971 0.0 0.0 0.0 16.28999089631971 0.0 0.0 0.0 34.397273925272025" Properties=species:S:1:pos:R:3:initial_magmoms:R:1 pbc="T T T"
Si      -1.35692442      -1.35746199      -1.35728279       0.00000000
Si      -1.35725022       1.35700587       1.35762676       0.00000000
Si       1.35788553      -1.35769005       1.35762676       0.00000000
Si       1.35762489       1.35879777      -1.35697321       0.00000000
Si       0.00293220       2.71345788      -2.71470317       0.00000000
Si       0.00135207      -2.71428867       2.71422161       0.00000000
Si      -2.71498914       2.71472850       0.00027518       0.00000000
Si       2.71487511       2.71524978       0.00020638       0.00000000
Si      -2.71479366      -2.71562445       0.00020638       0.00000000
Si       2.71508688      -2.71557558       0.00030958       0.00000000
