10
Lattice="16.28999089631971 0.0 0.0 0.0 16.28999089631971 0.0 0.0 0.0 34.397273925272025" Properties=species:S:1:pos:R:3:initial_magmoms:R:1 pbc="T T T"
Si       1.35188094      -1.35703845       1.35487498       0.00000000
Si       1.35557866       1.35814617      -1.35807393       0.00000000
Si      -1.35887922      -1.35666378      -1.35800513       0.00000000
Si      -1.36125756       1.35790182       1.36051614       0.00000000
Si      -0.00387702      -2.69208540       2.72123866       0.00000000
Si       2.71519506      -2.71230129      -0.00013759       0.00000000
Si      -2.71541268      -2.71326240      -0.00141029       0.00000000
Si       2.71372734       0.00091224      -2.71573509       0.00000000
Si      -0.00167787      -2.71454931      -2.71532232       0.00000000
Si       2.71443921       2.71560816       0.00175426       0.00000000
