10
Lattice="16.28999089631971 0.0 0.0 0.0 16.28999089631971 0.0 0.0 0.0 34.397273925272025" Properties=species:S:1:pos:R:3:initial_magmoms:R:1 pbc="T T T"
Si       2.19124935      -0.72242892       0.35037083       0.00000000
Si      -0.43127775       1.47750300       1.79770573       0.00000000
Si      -1.43022942      -1.88941194       0.33599276       0.00000000
Si       0.04051323       1.49845194      -1.97461101       0.00000000
Si       3.09355801       1.43780427       0.80661652       0.00000000
Si      -2.03932881       2.83178844       0.67969051       0.00000000
Si      -3.56674437      -1.06093512      -0.28570392       0.00000000
Si       1.70307063       2.20820724       2.56934021       0.00000000
Si      -3.54967245       1.34964279      -0.57780573       0.00000000
Si      -0.66479490      -3.83638622      -0.84011949       0.00000000
