10
Lattice="16.28999089631971 0.0 0.0 0.0 16.28999089631971 0.0 0.0 0.0 34.397273925272025" Properties=species:S:1:pos:R:3:initial_magmoms:R:1 pbc="T T T"
Si      -1.35019665       1.35053874      -1.35986259       0.00000000
Si       1.36088030       1.33923348       1.37592612       0.00000000
Si       1.36479642      -1.36616085      -1.35580371       0.00000000
Si      -1.35115776      -1.37220444       1.37682045       0.00000000
Si       2.14385264      -0.55032507       2.64948590       0.00000000
Si       0.35363051      -2.46241269       2.70015311       0.00000000
Si      -2.71039536       2.70524772      -0.00034397       0.00000000
Si       0.00562850       2.70585045      -2.71590708       0.00000000
Si      -2.70863604      -0.00705357      -2.71614786       0.00000000
Si       2.72429792       2.70343953       0.00302696       0.00000000
