10
Lattice="16.28999089631971 0.0 0.0 0.0 16.28999089631971 0.0 0.0 0.0 34.397273925272025" Properties=species:S:1:pos:R:3:initial_magmoms:R:1 pbc="T T T"
Si       0.25513398      -2.31093198       0.11103446       0.00000000
Si      -1.07378793       0.85792914      -1.94365345       0.00000000
Si       2.23296545       0.83100177      -0.20012345       0.00000000
Si      -1.46639322       0.68457096       1.77249252       0.00000000
Si       1.75394660       3.12077304      -0.08647479       0.00000000
Si      -1.87921440      -3.04163622      -0.66060001       0.00000000
Si       2.62966442       0.61621812      -2.55884903       0.00000000
Si      -0.50622804       3.73345623       0.07773788       0.00000000
Si      -0.94648158       2.91164202       2.20338741       0.00000000
Si      -2.22542577       2.79386532      -1.24789940       0.00000000
