10
Lattice="16.28999089631971 0.0 0.0 0.0 16.28999089631971 0.0 0.0 0.0 34.397273925272025" Properties=species:S:1:pos:R:3:initial_magmoms:R:1 pbc="T T T"
Si       1.35676152      -1.35713442      -1.35766116       0.00000000
Si       1.35627282       1.35909344       1.35673243       0.00000000
Si      -1.35957806      -1.35677604       1.35711080       0.00000000
Si      -1.35920176       1.35855261      -1.35724839       0.00000000
Si       2.71373481      -2.71407513       0.00068795       0.00000000
Si      -0.00234576      -2.71441722      -2.71490955       0.00000000
Si       2.71450044       0.00088482      -2.71518473       0.00000000
Si      -2.71496375       0.00102804      -2.71477196       0.00000000
Si       2.71450044       2.71560083      -0.00020638       0.00000000
Si      -0.00128691       2.71623614      -2.71404962       0.00000000
