10
Lattice="16.28999089631971 0.0 0.0 0.0 16.28999089631971 0.0 0.0 0.0 34.397273925272025" Properties=species:S:1:pos:R:3:initial_magmoms:R:1 pbc="T T T"
Si      -0.93884061      -1.54761516      -1.58131236       0.00000000
Si       1.61664403       0.93087576      -1.56480166       0.00000000
Si       1.58880443      -1.23818661       1.48362405       0.00000000
Si      -1.45217109       2.37306204      -0.05128636       0.00000000
Si       1.61781692       1.34042265       2.70232014       0.00000000
Si      -2.73779418      -2.31720363      -0.19534223       0.00000000
Si      -2.28240723      -0.24658173      -2.97674175       0.00000000
Si       3.15456665       2.23192548      -0.30713343       0.00000000
Si       0.44727779       2.43939492      -2.98802406       0.00000000
Si       2.89940008      -2.61496854      -0.08451415       0.00000000
