10
Lattice="16.28999089631971 0.0 0.0 0.0 16.28999089631971 0.0 0.0 0.0 34.397273925272025" Properties=species:S:1:pos:R:3:initial_magmoms:R:1 pbc="T T T"
Si      -1.35576198      -1.35752456      -1.35752357       0.00000000
Si      -1.35703172       1.35758579       1.35745478       0.00000000
Si       1.35791485       1.35768353      -1.35680123       0.00000000
Si       1.35920176      -1.35855261       1.35724839       0.00000000
Si      -2.71436427       0.00223173      -2.71229536       0.00000000
Si      -2.71434798       2.71423328      -0.00020638       0.00000000
Si      -2.71407105      -2.71505171      -0.00003440       0.00000000
Si      -2.71366380      -0.00017593       2.71549431       0.00000000
Si       2.71547458       0.00054083       2.71398083       0.00000000
Si      -0.00037630      -2.71532864       2.71435920       0.00000000
