10
Lattice="16.28999089631971 0.0 0.0 0.0 16.28999089631971 0.0 0.0 0.0 34.397273925272025" Properties=species:S:1:pos:R:3:initial_magmoms:R:1 pbc="T T T"
Si      -2.09464802       0.88026273      -0.47953266       0.00000000
Si      -0.57445056      -2.06571861       0.90702222       0.00000000
Si       0.65420640       1.30023522       1.85896731       0.00000000
Si       1.43682687       0.40970979      -1.88228868       0.00000000
Si      -0.70201755      -3.07460718      -1.21484360       0.00000000
Si       1.89095949       2.69545743      -1.32869864       0.00000000
Si       2.43796140       2.53806345       1.03140284       0.00000000
Si      -1.89534802       3.15213129      -0.05627397       0.00000000
Si       3.27529998      -0.96731649      -1.46071545       0.00000000
Si       1.71830178      -2.90840031      -1.60934615       0.00000000
