10
Lattice="16.28999089631971 0.0 0.0 0.0 16.28999089631971 0.0 0.0 0.0 34.397273925272025" Properties=species:S:1:pos:R:3:initial_magmoms:R:1 pbc="T T T"
Si      -0.97168777       1.88473671      -0.96243626       0.00000000
Si      -0.74967136      -2.17582272      -0.41882144       0.00000000
Si       2.11325446      -0.19137492      -1.06208522       0.00000000
Si      -0.82960639       0.20634543       2.26172522       0.00000000
Si       0.46099560      -2.89217547       1.54436967       0.00000000
Si      -3.04584460      -1.87014087      -0.72495735       0.00000000
Si       0.59305700       2.75460642      -2.44864011       0.00000000
Si      -1.78174060       3.28781070       0.70882502       0.00000000
Si      -2.73055165       1.59567066       2.14584074       0.00000000
Si       2.68770502       1.87434369      -1.96910744       0.00000000
