10
Lattice="16.28999089631971 0.0 0.0 0.0 16.28999089631971 0.0 0.0 0.0 34.397273925272025" Properties=species:S:1:pos:R:3:initial_magmoms:R:1 pbc="T T T"
Si       1.12620915      -0.84626550       1.86263878       0.00000000
Si      -2.00337189      -1.20699126      -0.17294959       0.00000000
Si       1.36775727       0.53621793      -1.86103115       0.00000000
Si      -0.83488856       2.28496572       0.17869394       0.00000000
Si      -2.53088675      -0.50283972      -2.35624898       0.00000000
Si      -0.73548210      -1.67342283       3.10776245       0.00000000
Si       1.81732869       1.04995566       3.07355091       0.00000000
Si       0.97795386       2.77641873      -2.31755202       0.00000000
Si       1.23404895       3.61654290       0.31084834       0.00000000
Si      -1.64011955      -3.47900643      -0.54636660       0.00000000
