10
Lattice="16.28999089631971 0.0 0.0 0.0 16.28999089631971 0.0 0.0 0.0 34.397273925272025" Properties=species:S:1:pos:R:3:initial_magmoms:R:1 pbc="T T T"
Si      -1.35669182      -1.35612621      -1.35656045       0.00000000
Si       1.35610015       1.35757602      -1.35724839       0.00000000
Si       1.35735448      -1.35720135       1.35721400       0.00000000
Si      -1.35815468       1.35695700       1.35717960       0.00000000
Si      -0.00245327       2.71324611      -2.71305210       0.00000000
Si      -2.71397983       0.00164529       2.71322409       0.00000000
Si      -2.71531561      -2.71438641       0.00010319       0.00000000
Si       2.71445809       0.00055386       2.71545991       0.00000000
Si       2.71507711      -2.71484253       0.00003440       0.00000000
Si      -0.00113216       2.71521720       2.71477196       0.00000000
