10
Lattice="16.28999089631971 0.0 0.0 0.0 16.28999089631971 0.0 0.0 0.0 34.64500226677339" Properties=species:S:1:pos:R:3:initial_magmoms:R:1 pbc="T T T"
Si       1.03754268      -1.63362636      -1.35188339       0.00000000
Si      -0.97987282      -1.12734945       1.83573576       0.00000000
Si       1.29209022       1.50819336       1.29503091       0.00000000
Si      -1.70175098       1.41796305      -0.88694720       0.00000000
Si      -1.85390176       0.89774190       2.66378642       0.00000000
Si      -3.57836633       0.07179003      -0.54867321       0.00000000
Si      -2.29979681       2.71992242       1.09710390       0.00000000
Si       0.37242198      -1.20619305      -3.53819212       0.00000000
Si       0.15452694       1.82275326       3.38710518       0.00000000
Si       0.65075292      -1.66843809       3.44631353       0.00000000
