10
Lattice="16.28999089631971 0.0 0.0 0.0 16.28999089631971 0.0 0.0 0.0 34.64500226677339" Properties=species:S:1:pos:R:3:initial_magmoms:R:1 pbc="T T T"
Si      -1.35488817      -1.35579552       1.35638724       0.00000000
Si       1.35708732      -1.35704659      -1.35721872       0.00000000
Si      -1.35708732       1.35711990      -1.35746124       0.00000000
Si       1.35785295       1.35993807       1.35718408       0.00000000
Si       0.00123804      -2.71353023      -2.71384848       0.00000000
Si      -0.00231318       2.71371852       2.71464531       0.00000000
Si      -2.71446786       0.00112401      -2.71492247       0.00000000
Si      -2.71495656      -2.71453435      -0.00020787       0.00000000
Si       0.00096111      -2.71645503       2.71325951       0.00000000
Si       2.71495656      -2.71480474      -0.00003465       0.00000000
