10
Lattice="16.28999089631971 0.0 0.0 0.0 16.28999089631971 0.0 0.0 0.0 34.64500226677339" Properties=species:S:1:pos:R:3:initial_magmoms:R:1 pbc="T T T"
Si      -1.35656604       1.35941679      -1.36383592       0.00000000
Si       1.35980775      -1.35800770      -1.36393986       0.00000000
Si      -1.36174626      -1.37007534       1.37114602       0.00000000
Si       1.36767582       1.37554389       1.37124996       0.00000000
Si       2.70949941      -2.71437731      -0.00530069       0.00000000
Si       2.70959715       2.71435383      -0.00824552       0.00000000
Si      -2.71673217       2.71319724      -0.00637468       0.00000000
Si      -2.71345788      -2.71697631      -0.00776048       0.00000000
Si      -2.71441899      -0.00052128      -2.72102000       0.00000000
Si       0.00084708       2.71495656      -2.72098535       0.00000000
