10
Lattice="16.28999089631971 0.0 0.0 0.0 16.28999089631971 0.0 0.0 0.0 34.64500226677339" Properties=species:S:1:pos:R:3:initial_magmoms:R:1 pbc="T T T"
Si       1.35488817       1.35579552      -1.35638724       0.00000000
Si       1.35584928      -1.36065951       1.35687227       0.00000000
Si      -1.35941679       1.35300993       1.36102967       0.00000000
Si      -1.36006839      -1.35873883      -1.35659511       0.00000000
Si       2.71202436      -2.71337221       0.00079684       0.00000000
Si       2.71197549      -0.00125107      -2.71360596       0.00000000
Si      -0.00219915       2.71291542      -2.71384848       0.00000000
Si       2.71274112       2.71573359       0.00079684       0.00000000
Si      -0.00224802      -2.71684198      -2.71370990       0.00000000
Si      -2.71737562      -0.00137488      -2.71343274       0.00000000
