10
Lattice="16.28999089631971 0.0 0.0 0.0 16.28999089631971 0.0 0.0 0.0 34.64500226677339" Properties=species:S:1:pos:R:3:initial_magmoms:R:1 pbc="T T T"
Si       0.93634920       1.79940969      -1.24095003       0.00000000
Si      -1.77614757      -0.97267590      -1.26177169       0.00000000
Si       1.85730435      -1.67128884       0.15635298       0.00000000
Si      -0.77063103      -0.52735617       2.71495712       0.00000000
Si       1.58612472      -0.60033537       2.42137521       0.00000000
Si       2.27949228       0.38874456      -2.65439762       0.00000000
Si      -0.44992980      -2.35687467      -2.65450156       0.00000000
Si      -1.52055747      -2.78210394       2.12907516       0.00000000
Si      -3.34415781      -1.94246847       0.17544239       0.00000000
Si       0.97373475      -3.63252241      -1.20162793       0.00000000
