10
Lattice="16.28999089631971 0.0 0.0 0.0 16.28999089631971 0.0 0.0 0.0 34.64500226677339" Properties=species:S:1:pos:R:3:initial_magmoms:R:1 pbc="T T T"
Si      -1.16563095       0.07271856      -2.00823332       0.00000000
Si       1.41558471      -1.84811842       0.30899895       0.00000000
Si       1.30505706       1.99313037       0.12098042       0.00000000
Si      -1.25986860      -0.34458237       2.03650366       0.00000000
Si      -1.94489568       2.30816268      -1.54277746       0.00000000
Si       0.58852512       0.35209206       3.36922835       0.00000000
Si       0.44686728       2.59033806       2.23082759       0.00000000
Si       2.38971042      -0.91805553       2.33060525       0.00000000
Si      -0.36004158      -3.46998896       0.47758162       0.00000000
Si       0.19673433       3.33977580      -1.45419014       0.00000000
