10
Lattice="16.28999089631971 0.0 0.0 0.0 16.28999089631971 0.0 0.0 0.0 34.64500226677339" Properties=species:S:1:pos:R:3:initial_magmoms:R:1 pbc="T T T"
Si       1.35741312       1.35553977      -1.35714943       0.00000000
Si      -1.36016613       1.35378045       1.35746124       0.00000000
Si      -1.35785295      -1.35993807      -1.35718408       0.00000000
Si       1.35656604      -1.35941679       1.36383592       0.00000000
Si      -2.71300176       2.71340901       0.00006929       0.00000000
Si       0.00008145       2.71244790      -2.71513034       0.00000000
Si       2.71410948      -0.00171045      -2.71433351       0.00000000
Si      -2.71274112      -2.71573359      -0.00079684       0.00000000
Si      -2.71494027      -0.00281817      -2.71464531       0.00000000
Si      -0.00076563      -2.71698467      -2.71440280       0.00000000
