10
Lattice="16.28999089631971 0.0 0.0 0.0 16.28999089631971 0.0 0.0 0.0 34.64500226677339" Properties=species:S:1:pos:R:3:initial_magmoms:R:1 pbc="T T T"
Si      -1.34607528      -1.33364601       1.38341036       0.00000000
Si      -1.35283563       1.35962856      -1.35739195       0.00000000
Si       1.36016613      -1.35378045      -1.35746124       0.00000000
Si       1.34501643       1.36585134       1.37925296       0.00000000
Si      -2.71342530       2.71137276       0.00523140       0.00000000
Si      -2.71282257       0.00128691      -2.71433351       0.00000000
Si       0.00231318      -2.71371852      -2.71464531       0.00000000
Si      -2.71199178      -2.71650411       0.00277160       0.00000000
Si       2.71673217      -2.71319724       0.00637468       0.00000000
Si       0.00252495       2.71590138      -2.71461067       0.00000000
