10
Lattice="16.28999089631971 0.0 0.0 0.0 16.28999089631971 0.0 0.0 0.0 34.64500226677339" Properties=species:S:1:pos:R:3:initial_magmoms:R:1 pbc="T T T"
Si      -1.36748034      -1.34040636      -1.35843130       0.00000000
Si       1.35806472      -1.35293337       1.36037142       0.00000000
Si      -1.35555606       1.36249560       1.35947065       0.00000000
Si       1.38021912       1.37916027      -1.38104410       0.00000000
Si      -0.01363473      -2.56839543      -2.83650571       0.00000000
Si       2.71446786      -2.71090035      -0.00370702       0.00000000
Si       2.71340901       2.71345788       0.00183619       0.00000000
Si      -0.00019548      -2.71086777       2.71696653       0.00000000
Si      -2.71602193      -2.71208952       0.00280625       0.00000000
Si      -2.71256519       2.71634121      -0.00097006       0.00000000
