10
Lattice="16.28999089631971 0.0 0.0 0.0 16.28999089631971 0.0 0.0 0.0 34.64500226677339" Properties=species:S:1:pos:R:3:initial_magmoms:R:1 pbc="T T T"
Si       0.82556091       1.85815143      -1.39113620       0.00000000
Si      -1.86534346      -0.81412533      -1.65260218       0.00000000
Si       1.79940969      -1.92217113      -0.16854803       0.00000000
Si       0.56578428       1.34216568       2.53158102       0.00000000
Si      -1.21874449      -1.90969299       2.28092429       0.00000000
Si       1.99257651       0.41304924      -2.99260232       0.00000000
Si      -3.23612972      -1.21772637       1.40509814       0.00000000
Si       3.36741993      -0.95237856      -1.60576211       0.00000000
Si      -0.72269608      -2.33353761      -3.00417376       0.00000000
Si      -0.16138503      -0.55796508       3.83215513       0.00000000
