10
Lattice="16.28999089631971 0.0 0.0 0.0 16.28999089631971 0.0 0.0 0.0 34.64500226677339" Properties=species:S:1:pos:R:3:initial_magmoms:R:1 pbc="T T T"
Si      -1.35106002      -1.34816040      -1.38129701       0.00000000
Si       1.47481515      -1.22530122       1.39380387       0.00000000
Si       1.36738260       1.36415718      -1.37606561       0.00000000
Si      -1.25160957       1.40362785       1.48190616       0.00000000
Si       2.40707556       0.62892432       2.67262090       0.00000000
Si       0.62420022       2.37371364       2.88915229       0.00000000
Si      -2.70479160      -2.68622100      -0.00353379       0.00000000
Si      -2.67942807       2.72862387      -0.00311805       0.00000000
Si       2.73805578      -2.69045640      -0.01198718       0.00000000
Si       0.00860112      -2.70479160      -2.73865431       0.00000000
