10
Lattice="16.28999089631971 0.0 0.0 0.0 16.28999089631971 0.0 0.0 0.0 34.64500226677339" Properties=species:S:1:pos:R:3:initial_magmoms:R:1 pbc="T T T"
Si      -1.70627976      -0.93388941       1.34467722       0.00000000
Si       0.57112740       1.77852591       1.47941171       0.00000000
Si       0.82500705      -2.84770377       0.13390301       0.00000000
Si       1.88384076       0.64799991      -2.41129351       0.00000000
Si       0.10096542       2.39278923      -2.19476212       0.00000000
Si       2.30707125       0.65462994       2.68779542       0.00000000
Si      -3.54408498      -0.63443034      -0.20527175       0.00000000
Si       3.48079833      -0.26656956      -0.93631635       0.00000000
Si       0.53165673       3.69672228      -0.03984177       0.00000000
Si       0.29853054      -2.97953874      -2.29661848       0.00000000
