10
Lattice="16.28999089631971 0.0 0.0 0.0 16.28999089631971 0.0 0.0 0.0 34.64500226677339" Properties=species:S:1:pos:R:3:initial_magmoms:R:1 pbc="T T T"
Si       1.84982724       1.40014179      -0.28211441       0.00000000
Si       0.41764302      -2.32847631      -0.21712035       0.00000000
Si      -0.84409893       0.47855133      -2.19708334       0.00000000
Si      -1.69271019       0.91922841       1.47390316       0.00000000
Si      -2.84136696       1.55698191      -1.69843754       0.00000000
Si      -2.27678814       2.89211031       0.16303947       0.00000000
Si       2.48171634       1.14080499      -2.51969778       0.00000000
Si      -1.72398699      -3.36008943      -0.30570767       0.00000000
Si      -3.65324427      -0.49619340       1.27950994       0.00000000
Si       1.60094862      -2.84685669      -2.22594264       0.00000000
