10
Lattice="16.28999089631971 0.0 0.0 0.0 16.28999089631971 0.0 0.0 0.0 34.64500226677339" Properties=species:S:1:pos:R:3:initial_magmoms:R:1 pbc="T T T"
Si       1.48691862      -1.79952372      -0.57832935       0.00000000
Si       0.87177564       2.09564334      -0.87315848       0.00000000
Si      -0.24423597       0.24294906       2.44081106       0.00000000
Si      -2.06931870      -0.21553299      -1.43925813       0.00000000
Si       0.37007622      -3.70647999       0.49823006       0.00000000
Si      -1.96639848       1.95766704       2.63761457       0.00000000
Si       1.03047282      -2.02383702      -3.08358015       0.00000000
Si      -1.61860698       0.77164101      -3.55416348       0.00000000
Si      -2.63611296      -2.51245557      -1.83400351       0.00000000
Si      -4.09284458       0.57945159      -0.21445268       0.00000000
