10
Lattice="16.28999089631971 0.0 0.0 0.0 16.28999089631971 0.0 0.0 0.0 34.64500226677339" Properties=species:S:1:pos:R:3:initial_magmoms:R:1 pbc="T T T"
Si       0.03947067      -1.91819637       1.51925349       0.00000000
Si      -2.12204943       1.32339050      -0.26458403       0.00000000
Si      -0.43069131      -1.30393305      -2.15492035       0.00000000
Si       1.82428452       1.54178890       1.04198367       0.00000000
Si       1.25581239       2.43420560      -2.23730621       0.00000000
Si      -1.78706187      -1.21883409       2.83566038       0.00000000
Si       0.98463276       3.50515907       0.02771602       0.00000000
Si       0.37224279       0.47297202      -3.59528712       0.00000000
Si      -3.30918318       0.23666112       1.58528690       0.00000000
Si      -0.53165673      -3.69672228       0.03984177       0.00000000
