10
Lattice="16.28999089631971 0.0 0.0 0.0 16.28999089631971 0.0 0.0 0.0 34.64500226677339" Properties=species:S:1:pos:R:3:initial_magmoms:R:1 pbc="T T T"
Si       0.80293410       1.77690507      -1.44036677       0.00000000
Si       1.78287534      -1.74478932      -0.21653139       0.00000000
Si      -1.87580979      -0.97008579      -1.40724613       0.00000000
Si       0.43069131       1.30393305       2.15492035       0.00000000
Si      -0.10096542      -2.39278923       2.19476212       0.00000000
Si       2.11338315       0.37089072      -2.89836786       0.00000000
Si      -1.69135812       2.62732355       1.89033632       0.00000000
Si       0.47016198      -0.61426332       3.67417383       0.00000000
Si      -0.62420022      -2.37371364      -2.88915229       0.00000000
Si       3.59269434      -0.76986540      -1.40367770       0.00000000
