10
Lattice="16.28999089631971 0.0 0.0 0.0 16.28999089631971 0.0 0.0 0.0 34.64500226677339" Properties=species:S:1:pos:R:3:initial_magmoms:R:1 pbc="T T T"
Si      -2.31844167       0.02357163      -0.26427222       0.00000000
Si       0.83816937       2.10699747      -0.56533746       0.00000000
Si       0.37874250       0.04012227       2.38860102       0.00000000
Si       0.38729475      -1.30478013      -2.01647884       0.00000000
Si       2.66470191       1.40763519      -1.88174435       0.00000000
Si       0.07654671       2.38992219       2.88859797       0.00000000
Si      -3.05805654      -2.17201086       0.17759038       0.00000000
Si       1.71523926       3.11417559       1.38469222       0.00000000
Si      -2.98356237       0.45100494      -2.45058096       0.00000000
Si      -1.11737997      -1.34939844       3.47638541       0.00000000
