10
Lattice="16.28999089631971 0.0 0.0 0.0 16.28999089631971 0.0 0.0 0.0 34.64500226677339" Properties=species:S:1:pos:R:3:initial_magmoms:R:1 pbc="T T T"
Si      -0.83816937      -2.10699747       0.56533746       0.00000000
Si       1.82653254      -0.69936228      -1.31640689       0.00000000
Si       0.87706989       1.00717812       1.95002969       0.00000000
Si      -1.52212131       1.45549521      -1.25037348       0.00000000
Si      -0.76162266       0.28292472       3.45393543       0.00000000
Si       1.78706187       1.21883409      -2.83566038       0.00000000
Si      -0.45942687      -2.06687520       2.95393848       0.00000000
Si      -0.45087462      -3.41177760      -1.45114138       0.00000000
Si      -3.15661104      -2.08342584       0.30106524       0.00000000
Si       1.41793047       3.27496508       1.35306132       0.00000000
