10
Lattice="16.28999089631971 0.0 0.0 0.0 16.28999089631971 0.0 0.0 0.0 34.64500226677339" Properties=species:S:1:pos:R:3:initial_magmoms:R:1 pbc="T T T"
Si       2.17551321       0.90372033      -0.08896842       0.00000000
Si      -0.42013539      -0.18091674       2.33964760       0.00000000
Si       0.74958435      -1.98069200      -1.14584945       0.00000000
Si      -1.84767696       1.30987890      -0.94864998       0.00000000
Si       1.79139501       3.12626277       0.57295937       0.00000000
Si       1.93671810      -0.89396262      -2.99572038       0.00000000
Si      -2.90503642      -0.04184901      -2.49988083       0.00000000
Si       2.68664454       1.36078515      -2.40983841       0.00000000
Si      -3.15551472       2.00106360       0.96344341       0.00000000
Si       1.20006801       3.22991604      -1.78456506       0.00000000
