10
Lattice="16.28999089631971 0.0 0.0 0.0 16.28999089631971 0.0 0.0 0.0 34.64500226677339" Properties=species:S:1:pos:R:3:initial_magmoms:R:1 pbc="T T T"
Si       1.88869518       0.89505405      -1.34311820       0.00000000
Si      -1.85730435       1.67128884      -0.15635298       0.00000000
Si      -0.27117963       1.07095347       2.26502222       0.00000000
Si      -0.88356960      -1.96123357      -1.35798091       0.00000000
Si       0.56847213      -0.89241670       3.27928988       0.00000000
Si       0.42218793       2.06003340      -2.81075060       0.00000000
Si      -1.25581239      -2.43420560       2.23730621       0.00000000
Si       2.63697633      -1.57919007       1.99499893       0.00000000
Si      -2.30723415      -0.68558583      -2.81085454       0.00000000
Si      -2.62793538       1.14393267       2.55860414       0.00000000
