10
Lattice="16.28999089631971 0.0 0.0 0.0 16.28999089631971 0.0 0.0 0.0 34.64500226677339" Properties=species:S:1:pos:R:3:initial_magmoms:R:1 pbc="T T T"
Si       1.47357711      -0.71190558       1.77455265       0.00000000
Si      -2.05102503      -1.28280492      -0.06305394       0.00000000
Si      -1.08748782       2.16599985       0.18458868       0.00000000
Si       1.56470337      -0.11168424      -1.88319944       0.00000000
Si      -2.57557932       2.09080521      -1.68949912       0.00000000
Si       3.66961572      -0.74950290       0.79059939       0.00000000
Si      -3.39262056      -0.26925741      -1.79696798       0.00000000
Si       1.24214508       0.83522088       3.56857581       0.00000000
Si       3.15978759      -1.84771280      -1.30545906       0.00000000
Si       0.50598369       3.89663316      -0.12240086       0.00000000
