10
Lattice="16.28999089631971 0.0 0.0 0.0 16.28999089631971 0.0 0.0 0.0 34.64500226677339" Properties=species:S:1:pos:R:3:initial_magmoms:R:1 pbc="T T T"
Si      -1.35063648       1.36014984       1.36012890       0.00000000
Si      -1.33973847      -1.35329175      -1.37977610       0.00000000
Si       1.36370106      -1.35539316       1.36092574       0.00000000
Si       1.37632581       1.37806884      -1.37378597       0.00000000
Si       0.16547382      -2.59924869      -2.80916733       0.00000000
Si      -2.71116099      -2.71158453       0.00280625       0.00000000
Si      -2.70961344       0.00087966       2.71689724       0.00000000
Si      -2.71106325       2.71658556      -0.00342986       0.00000000
Si       0.00441459      -2.71327869       2.71769408       0.00000000
Si       2.71740006       2.71529865      -0.00083148       0.00000000
