10
Lattice="16.28999089631971 0.0 0.0 0.0 16.28999089631971 0.0 0.0 0.0 34.64500226677339" Properties=species:S:1:pos:R:3:initial_magmoms:R:1 pbc="T T T"
Si      -1.35607734      -1.35624024      -1.35770375       0.00000000
Si      -1.35669636       1.35725022       1.35718408       0.00000000
Si       1.35772263      -1.35788553       1.35708014       0.00000000
Si       1.35928647       1.35788553      -1.35676834       0.00000000
Si      -2.71402803       2.71415835      -0.00079684       0.00000000
Si      -2.71410948       0.00171045       2.71433351       0.00000000
Si       0.00226431      -2.71571405       2.71422957       0.00000000
Si       2.71516833       2.71487511      -0.00020787       0.00000000
Si      -2.71487511      -2.71527421      -0.00006929       0.00000000
Si      -2.71557558       0.00169416      -2.71488783       0.00000000
