10
Lattice="16.28999089631971 0.0 0.0 0.0 16.28999089631971 0.0 0.0 0.0 34.64500226677339" Properties=species:S:1:pos:R:3:initial_magmoms:R:1 pbc="T T T"
Si       1.34809524      -1.35988920       1.35590221       0.00000000
Si       1.35415512       1.35531171      -1.35635260       0.00000000
Si      -1.35953082       1.35250983       1.36217296       0.00000000
Si      -1.36065483      -1.35928647      -1.35683763       0.00000000
Si       2.71120986      -0.00166158      -2.71422957       0.00000000
Si      -0.00346977       2.71305063      -2.71450673       0.00000000
Si       2.71334385      -2.71422351       0.00103935       0.00000000
Si       2.71420722       2.71578735       0.00131651       0.00000000
Si      -0.00395847      -2.71653669      -2.71402170       0.00000000
Si      -2.71811682       2.71461447       0.00072755       0.00000000
