10
Lattice="16.28999089631971 0.0 0.0 0.0 16.28999089631971 0.0 0.0 0.0 34.64500226677339" Properties=species:S:1:pos:R:3:initial_magmoms:R:1 pbc="T T T"
Si       1.70002440       1.56970440      -0.61675068       0.00000000
Si      -1.08533754      -0.05633082      -2.15561325       0.00000000
Si       0.61128225      -2.15647020       0.93312901       0.00000000
Si      -1.23900111       1.29350745       1.73945725       0.00000000
Si       1.10684034       1.55116638       2.69604094       0.00000000
Si      -2.51594163       1.77689691      -1.74364929       0.00000000
Si      -3.32346951       1.17035505       0.38307000       0.00000000
Si       0.20973375       1.22500800      -3.56206254       0.00000000
Si       2.75577930      -0.15340293       2.60811187       0.00000000
Si       3.65343975       0.36807255      -1.37526878       0.00000000
