10
Lattice="16.28999089631971 0.0 0.0 0.0 16.28999089631971 0.0 0.0 0.0 34.64500226677339" Properties=species:S:1:pos:R:3:initial_magmoms:R:1 pbc="T T T"
Si       0.51813603      -0.90025056       2.13139638       0.00000000
Si       1.53564201       1.79870922      -0.24757332       0.00000000
Si       0.23143203      -1.54712646      -1.79402315       0.00000000
Si      -2.40461577       0.50251392       0.20000571       0.00000000
Si      -1.31996241      -2.40867198       2.40963054       0.00000000
Si       0.00770517       1.27801566       3.44018136       0.00000000
Si       1.48286241       2.76643296       1.98107163       0.00000000
Si      -1.24214508      -0.83522088      -3.56857581       0.00000000
Si      -0.37602207      -3.77495500      -1.00827406       0.00000000
Si       0.77157585       3.38778243      -1.86954930       0.00000000
