10
Lattice="16.28999089631971 0.0 0.0 0.0 16.28999089631971 0.0 0.0 0.0 34.64500226677339" Properties=species:S:1:pos:R:3:initial_magmoms:R:1 pbc="T T T"
Si       0.72148410       1.80727776       1.43687252       0.00000000
Si       0.14258637       1.35946566      -2.10281423       0.00000000
Si      -1.92422367      -1.10387556       1.19343234       0.00000000
Si       1.89739404      -1.83462867      -0.02310823       0.00000000
Si       1.14016968      -0.70325559      -3.07114259       0.00000000
Si       2.00469627       0.40109238       2.90714141       0.00000000
Si      -0.71136801      -2.33026821       2.90115129       0.00000000
Si      -3.31828929      -0.16285113      -1.83171694       0.00000000
Si       3.47058450      -0.88190802       1.52334649       0.00000000
Si       0.79384428      -3.57622515       1.47176005       0.00000000
