10
Lattice="16.28999089631971 0.0 0.0 0.0 16.28999089631971 0.0 0.0 0.0 34.64500226677339" Properties=species:S:1:pos:R:3:initial_magmoms:R:1 pbc="T T T"
Si      -1.07571015       0.46442790       2.26609622       0.00000000
Si      -1.83293451       1.59580098      -0.78193814       0.00000000
Si       1.47515724       1.48841730      -1.45910973       0.00000000
Si       0.51043086      -2.17826622      -1.30878498       0.00000000
Si      -3.27051072      -0.17829405      -1.13032848       0.00000000
Si      -0.32912316       2.95709112      -1.90232349       0.00000000
Si      -0.00770517      -1.27801566      -3.44018136       0.00000000
Si       2.24593488       2.20397184       2.35953384       0.00000000
Si      -3.12885288      -2.41654005       0.00807229       0.00000000
Si       1.52793684       0.52069356      -3.68775468       0.00000000
