10
Lattice="16.28999089631971 0.0 0.0 0.0 16.28999089631971 0.0 0.0 0.0 34.64500226677339" Properties=species:S:1:pos:R:3:initial_magmoms:R:1 pbc="T T T"
Si       1.57319046       0.95272065       1.54645472       0.00000000
Si      -1.10354976      -1.74159648       1.49486828       0.00000000
Si       1.07571015      -0.46442790      -2.26609622       0.00000000
Si      -1.89739404       1.83462867       0.02310823       0.00000000
Si      -0.75722436       1.13137308      -3.04803436       0.00000000
Si       0.10730223       2.23572105       2.93024964       0.00000000
Si       3.32164503       1.73954394       0.09343762       0.00000000
Si      -2.76613974      -2.74668948       0.16234657       0.00000000
Si      -2.60876205      -0.49563954       2.92425951       0.00000000
Si      -3.82161771       0.73075311       1.21654057       0.00000000
