10
Lattice="16.28999089631971 0.0 0.0 0.0 16.28999089631971 0.0 0.0 0.0 34.64500226677339" Properties=species:S:1:pos:R:3:initial_magmoms:R:1 pbc="T T T"
Si      -1.35744570      -1.35614250       1.35759982       0.00000000
Si       1.35720135      -1.35770634      -1.35763446       0.00000000
Si      -1.35769005       1.35738054      -1.35766911       0.00000000
Si       1.35977517       1.35757602       1.35701085       0.00000000
Si       2.71008585       0.00073305       2.71454138       0.00000000
Si       0.00166158      -2.71386513      -2.71471460       0.00000000
Si      -2.71516833       0.00053757      -2.71419493       0.00000000
Si       2.71464705       2.71489140       0.00013858       0.00000000
Si      -2.71524978       2.71471221      -0.00017323       0.00000000
Si       2.71482624      -2.71544526       0.00051968       0.00000000
