10
Lattice="16.28999089631971 0.0 0.0 0.0 16.28999089631971 0.0 0.0 0.0 34.64500226677339" Properties=species:S:1:pos:R:3:initial_magmoms:R:1 pbc="T T T"
Si       1.35495333       1.35459495      -1.35811949       0.00000000
Si       1.35068535      -1.36041048       1.35728801       0.00000000
Si      -1.36479249       1.35570267       1.35635260       0.00000000
Si      -1.36005210      -1.36047564      -1.35766911       0.00000000
Si       2.71223613       2.71256193      -0.00079684       0.00000000
Si      -2.71510317       2.71254564      -0.00117793       0.00000000
Si      -0.00322542       2.71280628      -2.71537286       0.00000000
Si       2.71270854      -0.00304623      -2.71568467       0.00000000
Si       2.71327869      -2.71551042       0.00103935       0.00000000
Si      -2.70286938       0.01316232       2.72607817       0.00000000
