10
Lattice="16.28999089631971 0.0 0.0 0.0 16.28999089631971 0.0 0.0 0.0 34.64500226677339" Properties=species:S:1:pos:R:3:initial_magmoms:R:1 pbc="T T T"
Si      -0.23297958       1.80369559      -1.54475222       0.00000000
Si      -0.66624471      -2.13106336      -0.91106013       0.00000000
Si      -2.10609826       0.42502565       1.17831183       0.00000000
Si       2.28768615      -0.00864022       0.97196608       0.00000000
Si      -0.22863015      -2.02897393      -3.14711912       0.00000000
Si      -0.56040858       3.72003490      -0.01313046       0.00000000
Si      -3.00633253      -2.23973395      -0.57230111       0.00000000
Si       1.42988733       1.40369464      -3.25677061       0.00000000
Si      -0.16874811       3.07043857       2.31834091       0.00000000
Si      -2.71076026      -2.05272475       1.86487222       0.00000000
