10
Lattice="16.28999089631971 0.0 0.0 0.0 16.28999089631971 0.0 0.0 0.0 34.64500226677339" Properties=species:S:1:pos:R:3:initial_magmoms:R:1 pbc="T T T"
Si      -0.07009587       1.06073964       2.09682064       0.00000000
Si       1.24993170       1.38005622      -1.46984969       0.00000000
Si      -2.17219005      -0.55610802      -0.78103737       0.00000000
Si       0.93533922      -2.44784943      -0.00824552       0.00000000
Si      -1.14912918      -2.57100183      -1.36463276       0.00000000
Si       1.87655913       0.44491248       3.19011359       0.00000000
Si      -1.44925614      -0.21734118       3.51272803       0.00000000
Si      -2.21021091      -2.07909270       2.32277548       0.00000000
Si       3.52737144       1.46942316      -0.86415077       0.00000000
Si      -0.49230009      -3.61794384       1.60978093       0.00000000
