10
Lattice="16.28999089631971 0.0 0.0 0.0 16.28999089631971 0.0 0.0 0.0 34.64500226677339" Properties=species:S:1:pos:R:3:initial_magmoms:R:1 pbc="T T T"
Si       0.34627653      -2.28605715      -0.23603653       0.00000000
Si      -2.09727234       0.56368287      -0.86733812       0.00000000
Si       1.82635335       0.77094054      -1.27143765       0.00000000
Si       0.65915856       0.43678377       2.25514839       0.00000000
Si       3.24829116      -0.31141593       0.31675943       0.00000000
Si      -2.05799715       2.89839825      -0.54655986       0.00000000
Si       2.44910376      -2.65129524       0.64862409       0.00000000
Si       0.97816563      -2.54539395      -2.47361990       0.00000000
Si      -1.77606612       0.31175802      -3.27423170       0.00000000
Si       2.93319369       1.20357036       2.06723380       0.00000000
