10
Lattice="16.28999089631971 0.0 0.0 0.0 16.28999089631971 0.0 0.0 0.0 34.64500226677339" Properties=species:S:1:pos:R:3:initial_magmoms:R:1 pbc="T T T"
Si       1.34633592       1.34333856       1.36446993       0.00000000
Si      -1.36523232      -1.36984239       1.35958498       0.00000000
Si      -1.13414238       1.51990587      -1.41446269       0.00000000
Si       1.42016220      -1.17159309      -1.50508367       0.00000000
Si      -1.99285344      -0.27805401      -2.80434617       0.00000000
Si      -0.28826784      -2.15792001      -2.81314600       0.00000000
Si       0.69090777       2.46770694      -2.60557482       0.00000000
Si       2.49805521       0.63576612      -2.82409383       0.00000000
Si      -0.00666261       2.70259245       2.72262406       0.00000000
Si       2.71410948       2.71161711       0.01776250       0.00000000
