10
Lattice="16.28999089631971 0.0 0.0 0.0 16.28999089631971 0.0 0.0 0.0 34.64500226677339" Properties=species:S:1:pos:R:3:initial_magmoms:R:1 pbc="T T T"
Si       1.33713207       1.33736013      -1.37131925       0.00000000
Si      -1.37020077      -1.38044718      -1.36685004       0.00000000
Si       1.47931119      -1.14075612       1.49469017       0.00000000
Si      -1.31044905       1.40601435       1.45800109       0.00000000
Si      -0.33050781      -2.11568004       2.68183648       0.00000000
Si      -2.11338315      -0.37089072       2.89836786       0.00000000
Si       2.69291619       2.71169434       0.00509282       0.00000000
Si       2.68894143      -2.71625976       0.00024252       0.00000000
Si      -2.73411360       2.68166210       0.00512746       0.00000000
Si      -0.01255959       2.69372973      -2.72995841       0.00000000
