10
Lattice="16.28999089631971 0.0 0.0 0.0 16.28999089631971 0.0 0.0 0.0 34.64500226677339" Properties=species:S:1:pos:R:3:initial_magmoms:R:1 pbc="T T T"
Si      -1.33713207      -1.33736013       1.37131925       0.00000000
Si      -1.34969166       1.35636960      -1.35863917       0.00000000
Si       1.36614456      -1.35617508      -1.35822343       0.00000000
Si       1.35578412       1.37433421       1.37641206       0.00000000
Si       0.14217912      -2.47811625       2.86600941       0.00000000
Si      -2.70949941       2.71437731       0.00530069       0.00000000
Si      -2.70896184      -0.00094872      -2.71575396       0.00000000
Si      -2.70733284      -2.71780731       0.00446921       0.00000000
Si       0.00576666       2.71419812      -2.71578860       0.00000000
Si       0.00597843      -2.71572219      -2.71558073       0.00000000
