10
Lattice="16.28999089631971 0.0 0.0 0.0 16.28999089631971 0.0 0.0 0.0 34.64500226677339" Properties=species:S:1:pos:R:3:initial_magmoms:R:1 pbc="T T T"
Si       1.49941305      -1.75878243       0.42956362       0.00000000
Si       1.34052039       1.98874836      -0.21136928       0.00000000
Si      -1.95155829      -0.26666730       1.39823843       0.00000000
Si      -0.77783121      -1.18786680      -2.22587335       0.00000000
Si       0.47545623      -2.58203016       2.35811340       0.00000000
Si      -1.80198351      -2.67139710       1.75241448       0.00000000
Si      -1.25120232       0.72438372       3.39739476       0.00000000
Si      -3.68750214       0.85722867       0.18985472       0.00000000
Si       3.46991661      -0.88202205       1.34100485       0.00000000
Si       1.42131879      -3.39081237      -1.26048982       0.00000000
