10
Lattice="16.28999089631971 0.0 0.0 0.0 16.28999089631971 0.0 0.0 0.0 34.64500226677339" Properties=species:S:1:pos:R:3:initial_magmoms:R:1 pbc="T T T"
Si       0.44588988       1.16066250       1.96981199       0.00000000
Si       1.68689466      -1.31531976      -1.05563381       0.00000000
Si      -0.61494750       1.71344736      -1.55005291       0.00000000
Si      -2.32722198      -0.39959370       0.41962050       0.00000000
Si      -2.09258082       1.65001410       1.69424549       0.00000000
Si      -2.51577873       2.72622828      -0.44567356       0.00000000
Si       0.49647033      -0.49273992       3.73670810       0.00000000
Si       1.02773610      -1.75210353      -3.31078220       0.00000000
Si       1.16067879       3.33531790      -1.71863559       0.00000000
Si       2.71971324       2.39770881       1.64265906       0.00000000
