10
Lattice="16.28999089631971 0.0 0.0 0.0 16.28999089631971 0.0 0.0 0.0 34.64500226677339" Properties=species:S:1:pos:R:3:initial_magmoms:R:1 pbc="T T T"
Si      -0.93683790      -1.75506084      -1.18962586       0.00000000
Si       1.08636381      -1.51115067       1.43371147       0.00000000
Si      -1.61297064       1.19289878       1.39720947       0.00000000
Si       1.87097166       0.79938125      -1.39019874       0.00000000
Si       2.55850740       2.63930417      -0.00553974       0.00000000
Si       2.43186894      -0.16146322       2.78350230       0.00000000
Si       2.53175922      -2.72069946       0.04146663       0.00000000
Si      -0.28018800       2.55244589       2.77868664       0.00000000
Si      -2.76188805      -2.70286191       0.00148627       0.00000000
Si      -2.83385727       2.66681798      -0.03061927       0.00000000
