10
Lattice="16.28999089631971 0.0 0.0 0.0 16.28999089631971 0.0 0.0 0.0 34.64500226677339" Properties=species:S:1:pos:R:3:initial_magmoms:R:1 pbc="T T T"
Si       1.34118512       1.35707103      -1.36785474       0.00000000
Si      -1.20578580       1.50026013       1.35960923       0.00000000
Si      -1.37484342      -1.36037790      -1.36432095       0.00000000
Si       1.56540288      -1.20546000       1.35545183       0.00000000
Si       0.29146068      -2.75772758       2.44351338       0.00000000
Si       2.70022618       0.00039096      -2.72379160       0.00000000
Si       2.71179371       2.71235016       0.02626093       0.00000000
Si       2.70805027      -2.72487228       0.00388024       0.00000000
Si      -2.73857706      -2.69787975       0.00952738       0.00000000
Si      -0.01308087      -2.71401826      -2.72576637       0.00000000
