10
Lattice="16.28999089631971 0.0 0.0 0.0 16.28999089631971 0.0 0.0 0.0 34.64500226677339" Properties=species:S:1:pos:R:3:initial_magmoms:R:1 pbc="T T T"
Si       1.22192919      -2.01895002      -0.06672631       0.00000000
Si       0.41596515       1.20340746       2.00653572       0.00000000
Si      -1.79119953       0.21315465      -1.69441872       0.00000000
Si      -0.80068608      -2.18575962       0.98845711       0.00000000
Si      -1.07030187       2.66714541      -1.24223190       0.00000000
Si       1.24015770       2.44783314      -1.61646742       0.00000000
Si      -0.17847324       1.09037115      -3.12026923       0.00000000
Si      -3.02774085       2.06034291      -0.18025805       0.00000000
Si      -1.53745020       2.40503931       2.76505382       0.00000000
Si       1.31877324      -3.16761656      -2.03636508       0.00000000
