10
Lattice="16.28999089631971 0.0 0.0 0.0 16.28999089631971 0.0 0.0 0.0 34.64500226677339" Properties=species:S:1:pos:R:3:initial_magmoms:R:1 pbc="T T T"
Si      -0.02674818      -0.98978040      -2.19171336       0.00000000
Si       0.44623197       2.34600435      -0.31308706       0.00000000
Si      -2.32500654       0.40604454       0.57143499       0.00000000
Si       1.20175958      -1.12562271       1.78498080       0.00000000
Si      -1.15004142       2.62791909      -2.13333650       0.00000000
Si      -0.74648925       0.73060650      -3.66461181       0.00000000
Si      -3.08907270       1.99511775      -1.05054099       0.00000000
Si       0.39936564      -3.39817545       1.73623526       0.00000000
Si      -1.43317791      -2.97738846      -1.95896810       0.00000000
Si       0.70861078       3.31710012       1.92175935       0.00000000
