10
Lattice="16.28999089631971 0.0 0.0 0.0 16.28999089631971 0.0 0.0 0.0 34.64500226677339" Properties=species:S:1:pos:R:3:initial_magmoms:R:1 pbc="T T T"
Si       0.98405839       1.25359695      -1.76218438       0.00000000
Si      -2.10233853      -0.68973489      -0.88386379       0.00000000
Si       1.06681811      -2.10057921       0.40326805       0.00000000
Si      -1.33156089       0.02581965       2.93477978       0.00000000
Si       0.45690192      -1.75451445       2.95580931       0.00000000
Si       0.33651882       3.53651013      -1.34685986       0.00000000
Si       3.41491247       1.15207767      -1.29950012       0.00000000
Si       1.47720719      -3.18912588      -1.89896293       0.00000000
Si       0.72167958       0.28250118      -3.99703079       0.00000000
Si      -2.04955893      -1.65745863      -3.11250874       0.00000000
