10
Lattice="16.28999089631971 0.0 0.0 0.0 16.28999089631971 0.0 0.0 0.0 34.64500226677339" Properties=species:S:1:pos:R:3:initial_magmoms:R:1 pbc="T T T"
Si      -1.02395682      -0.82324773       1.92854977       0.00000000
Si       1.97050356       0.87676038       0.91144123       0.00000000
Si      -0.07809426      -1.63202994      -1.69005345       0.00000000
Si      -1.49941305       1.75878243      -0.42956362       0.00000000
Si      -2.27724426       0.57091563      -2.65543697       0.00000000
Si       3.15312498       1.19306331      -1.12360734       0.00000000
Si      -3.30139656      -0.91261467       1.32285086       0.00000000
Si      -2.23014987      -2.73883770      -1.23599579       0.00000000
Si      -0.16555527      -3.01115763       2.27707869       0.00000000
Si       3.01664736      -0.82427400       2.16018639       0.00000000
