10
Lattice="16.28999089631971 0.0 0.0 0.0 16.28999089631971 0.0 0.0 0.0 34.64500226677339" Properties=species:S:1:pos:R:3:initial_magmoms:R:1 pbc="T T T"
Si      -1.35404070      -1.33719723      -1.34601799       0.00000000
Si      -1.35353221       1.35979146       1.35971316       0.00000000
Si       1.36064180      -1.35518139       1.35884704       0.00000000
Si       1.36279208       1.37901366      -1.38672242       0.00000000
Si      -0.00103279      -2.67401002      -2.65219073       0.00000000
Si      -2.58949491       0.08843841      -2.78516179       0.00000000
Si      -2.70986172       2.71748151      -0.00336057       0.00000000
Si      -2.71613337      -2.71232898       0.00388024       0.00000000
Si      -2.71258215       0.00159642       2.71655079       0.00000000
Si       0.00284586      -2.71347580       2.71672402       0.00000000
