10
Lattice="16.28999089631971 0.0 0.0 0.0 16.28999089631971 0.0 0.0 0.0 34.64500226677339" Properties=species:S:1:pos:R:3:initial_magmoms:R:1 pbc="T T T"
Si      -0.31509747       1.51498629       1.75047436       0.00000000
Si       1.99928799       0.27802143      -1.17758429       0.00000000
Si      -1.42193781       1.08235647      -1.58819708       0.00000000
Si      -0.79918740      -2.33987931       0.33186466       0.00000000
Si      -3.24829116       0.31141593      -0.31675943       0.00000000
Si      -0.68784525      -0.55035765      -3.18308065       0.00000000
Si      -2.58913260       0.74819970       1.93838896       0.00000000
Si       1.60464645      -1.28184381      -2.88239651       0.00000000
Si      -2.90201463      -1.97464122      -0.55279597       0.00000000
Si       1.24976880       0.72293391       3.37376685       0.00000000
