10
Lattice="16.28999089631971 0.0 0.0 0.0 16.28999089631971 0.0 0.0 0.0 34.64500226677339" Properties=species:S:1:pos:R:3:initial_magmoms:R:1 pbc="T T T"
Si      -0.27047916      -1.03741236      -2.08985699       0.00000000
Si      -2.03781384      -0.12750183       1.20848764       0.00000000
Si       1.39243662      -1.84757922       0.73204931       0.00000000
Si       0.11503998       2.45694644      -0.47931387       0.00000000
Si       3.26905197      -0.50140620       0.39377532       0.00000000
Si      -0.91469979      -0.20046474       3.32391267       0.00000000
Si       0.40061997      -2.12595903       2.89583878       0.00000000
Si       2.67100614       0.80055317       2.37782641       0.00000000
Si      -0.05178591       2.44992545      -2.79727369       0.00000000
Si       0.58015206       1.65591501       3.33759745       0.00000000
