10
Lattice="16.28999089631971 0.0 0.0 0.0 16.28999089631971 0.0 0.0 0.0 34.64500226677339" Properties=species:S:1:pos:R:3:initial_magmoms:R:1 pbc="T T T"
Si       1.66144968       0.86630220       1.44961149       0.00000000
Si      -1.07789301      -1.80735921       1.31901015       0.00000000
Si      -1.80714744       1.83194082       0.21851901       0.00000000
Si       1.41540552       0.15152958      -2.21918686       0.00000000
Si       0.21605427       2.07585099       2.84185633       0.00000000
Si      -2.26766574       1.97662860      -2.07430138       0.00000000
Si       2.66080860       2.54185806       0.09960444       0.00000000
Si      -1.10366379      -3.01439934      -1.93707245       0.00000000
Si       0.08184096       1.87484868      -3.28469450       0.00000000
Si       0.53841708      -1.76166576      -3.33721635       0.00000000
