10
Lattice="16.28999089631971 0.0 0.0 0.0 16.28999089631971 0.0 0.0 0.0 34.64500226677339" Properties=species:S:1:pos:R:3:initial_magmoms:R:1 pbc="T T T"
Si      -0.41941863      -0.62431425      -2.24229509       0.00000000
Si       0.89924058       2.19117509       0.01867367       0.00000000
Si       1.33356456      -1.72331910       1.06550764       0.00000000
Si      -2.34950670       0.10177992       1.21039312       0.00000000
Si      -1.10829015      -2.84446206      -1.67581434       0.00000000
Si      -2.93441544       1.96945190      -0.12929522       0.00000000
Si       0.45657612      -3.63651444      -0.05252185       0.00000000
Si      -1.09631700       3.47787332      -0.40752939       0.00000000
Si      -0.08184096      -1.87484868       3.28469450       0.00000000
Si       2.64556116       2.37261311      -1.62169882       0.00000000
