10
Lattice="16.28999089631971 0.0 0.0 0.0 16.28999089631971 0.0 0.0 0.0 34.64500226677339" Properties=species:S:1:pos:R:3:initial_magmoms:R:1 pbc="T T T"
Si       2.21136587      -0.23328909       0.73121783       0.00000000
Si       0.10746350       0.95480577      -2.14982753       0.00000000
Si      -0.99508768      -2.10934323      -0.39207771       0.00000000
Si      -1.39882719       1.36445040       1.37062635       0.00000000
Si      -2.66332608       2.43527355      -0.39713588       0.00000000
Si       0.31275008      -2.80052793      -2.30417110       0.00000000
Si       1.93477796      -1.29490839       2.88696965       0.00000000
Si      -2.11897944       1.62473202      -2.59990100       0.00000000
Si      -3.32100225      -1.67666454      -0.72532817       0.00000000
Si      -0.47534709      -3.48886188       1.45422478       0.00000000
