10
Lattice="16.28999089631971 0.0 0.0 0.0 16.28999089631971 0.0 0.0 0.0 34.64500226677339" Properties=species:S:1:pos:R:3:initial_magmoms:R:1 pbc="T T T"
Si      -0.80239394      -2.27255274      -0.04874555       0.00000000
Si      -1.20175958       1.12562271      -1.78498080       0.00000000
Si       2.40894239      -0.48619134      -0.29008277       0.00000000
Si      -0.41038908       1.08854667       2.30223098       0.00000000
Si       1.72380128       0.70161030       3.11971491       0.00000000
Si       2.80060286      -1.13578767       2.04138861       0.00000000
Si      -2.54871452      -2.45399076       1.59162694       0.00000000
Si       0.86325271      -3.78120059       0.90135953       0.00000000
Si      -1.18050113      -3.03136700      -2.30482935       0.00000000
Si      -1.47720719       3.18912588       1.89896293       0.00000000
