10
Lattice="16.28999089631971 0.0 0.0 0.0 16.28999089631971 0.0 0.0 0.0 34.64500226677339" Properties=species:S:1:pos:R:3:initial_magmoms:R:1 pbc="T T T"
Si      -1.49483248       1.18325673      -1.38462293       0.00000000
Si       1.23344671      -1.53749907      -1.35524396       0.00000000
Si      -1.26550186      -1.39212711       1.48190616       0.00000000
Si       1.25192934       1.46290716       1.47989674       0.00000000
Si      -1.37681143       0.36386973       3.24197719       0.00000000
Si      -0.54136249       2.52780075       2.63246732       0.00000000
Si      -0.13818807       2.53990422      -2.74880531       0.00000000
Si       2.63659563       2.67988419       0.03339780       0.00000000
Si       2.57762583      -0.18311589      -2.74423216       0.00000000
Si      -2.68413280      -2.74958910      -0.02189565       0.00000000
