10
Lattice="16.28999089631971 0.0 0.0 0.0 16.28999089631971 0.0 0.0 0.0 34.64500226677339" Properties=species:S:1:pos:R:3:initial_magmoms:R:1 pbc="T T T"
Si      -1.21213890      -2.01289014       0.05127463       0.00000000
Si       2.36359755       0.04916322      -0.14855785       0.00000000
Si      -0.78369561       1.49669262       1.69303292       0.00000000
Si       0.14198364       0.34267644      -2.47292700       0.00000000
Si       0.82385046       2.66338242      -2.05098528       0.00000000
Si       2.66165568       2.36392335      -0.50103630       0.00000000
Si      -3.43858184      -1.34296389      -0.39879884       0.00000000
Si       0.18770967       0.65251224       3.70091979       0.00000000
Si       2.87464743      -1.75050711      -1.71558683       0.00000000
Si      -0.04408074       3.69227511       1.25117031       0.00000000
