10
Lattice="16.28999089631971 0.0 0.0 0.0 16.28999089631971 0.0 0.0 0.0 34.64500226677339" Properties=species:S:1:pos:R:3:initial_magmoms:R:1 pbc="T T T"
Si       1.96766747       0.46424871      -1.16646323       0.00000000
Si       0.49071833      -0.22931433       2.31127333       0.00000000
Si      -0.93847179      -1.79150904      -1.29565452       0.00000000
Si      -1.38790053       1.88952597      -0.55567150       0.00000000
Si      -1.36740771       1.44779004      -2.83378954       0.00000000
Si      -2.89935189      -0.87355125       1.71423567       0.00000000
Si       0.99626219       1.30842909      -3.17435011       0.00000000
Si      -3.18405222       1.37643984       0.89682103       0.00000000
Si       2.93693876       2.13104151       0.12444492       0.00000000
Si      -2.49579972      -2.77086384       0.18296036       0.00000000
