10
Lattice="16.28999089631971 0.0 0.0 0.0 16.28999089631971 0.0 0.0 0.0 34.64500226677339" Properties=species:S:1:pos:R:3:initial_magmoms:R:1 pbc="T T T"
Si      -1.83084711       0.90930780       1.10680451       0.00000000
Si       0.57461346       1.38528531      -1.83438461       0.00000000
Si       1.63318653       0.91429254       1.49548700       0.00000000
Si      -0.28375551      -2.31322887      -0.70509548       0.00000000
Si       3.13360956      -1.24343199      -1.20627036       0.00000000
Si       2.16246492       0.04712697      -2.89192389       0.00000000
Si       0.98108154       3.24169371       1.42817173       0.00000000
Si      -3.56388452       0.85239054      -0.41473555       0.00000000
Si       1.89078030      -3.13230636      -0.52345163       0.00000000
Si       1.41869610       3.34378314      -0.80788726       0.00000000
