10
Lattice="16.28999089631971 0.0 0.0 0.0 16.28999089631971 0.0 0.0 0.0 34.64500226677339" Properties=species:S:1:pos:R:3:initial_magmoms:R:1 pbc="T T T"
Si       2.06500185      -0.82259613      -0.84028035       0.00000000
Si      -0.45071172      -0.98717400       2.11490535       0.00000000
Si      -1.63318653      -0.91429254      -1.49548700       0.00000000
Si      -0.65210499       2.32740117      -0.06731528       0.00000000
Si      -0.21449043       2.42949060      -2.30337426       0.00000000
Si      -3.46403364      -0.00498474      -0.38868250       0.00000000
Si      -1.05857307       0.47099277      -3.32987161       0.00000000
Si      -2.99219281       2.21873058       0.27144374       0.00000000
Si       1.50042303      -2.15772453      -2.70175737       0.00000000
Si      -1.01750598      -3.28409658       1.72015997       0.00000000
