10
Lattice="16.28999089631971 0.0 0.0 0.0 16.28999089631971 0.0 0.0 0.0 34.64500226677339" Properties=species:S:1:pos:R:3:initial_magmoms:R:1 pbc="T T T"
Si      -1.35719158      -1.35580626       1.35763446       0.00000000
Si      -1.35730724       1.35736395      -1.35683763       0.00000000
Si       1.35782037      -1.35810315      -1.35711479       0.00000000
Si       1.36006839       1.35873883       1.35659511       0.00000000
Si      -2.71389994       0.00264183      -2.71488783       0.00000000
Si       0.00141723      -2.71396872      -2.71488783       0.00000000
Si       0.00065160       2.71174876       2.71762479       0.00000000
Si       2.71591767      -0.00192067       2.71346738       0.00000000
Si       2.71495656       2.71453435       0.00020787       0.00000000
Si      -2.71495635       2.71469725      -0.00003465       0.00000000
