10
Lattice="16.28999089631971 0.0 0.0 0.0 16.28999089631971 0.0 0.0 0.0 34.64500226677339" Properties=species:S:1:pos:R:3:initial_magmoms:R:1 pbc="T T T"
Si       0.91621476       1.76106303       1.19637124       0.00000000
Si      -1.79368701      -1.01862999       1.13730841       0.00000000
Si       1.72216251      -1.71471798      -0.19680351       0.00000000
Si       2.23782246       0.32837382       2.59249286       0.00000000
Si      -0.50987700      -2.39119281       2.61510566       0.00000000
Si      -2.52061197      -2.70021411      -0.41160264       0.00000000
Si      -2.12644610      -1.37821545      -2.85206726       0.00000000
Si       1.96639848      -1.95766704      -2.63761457       0.00000000
Si       2.00469627       3.25112140      -0.33475999       0.00000000
Si       0.84396861      -3.61918188       1.13703125       0.00000000
