10
Lattice="16.28999089631971 0.0 0.0 0.0 16.28999089631971 0.0 0.0 0.0 34.64500226677339" Properties=species:S:1:pos:R:3:initial_magmoms:R:1 pbc="T T T"
Si       1.35883361       1.35350209      -1.35857681       0.00000000
Si       1.35700913      -1.35384561       1.36044071       0.00000000
Si      -1.35830804       1.36276494       1.36044071       0.00000000
Si      -1.35354003      -1.35399222      -1.38365287       0.00000000
Si      -2.62080429       0.15939765      -2.73638853       0.00000000
Si      -0.00559399       2.75695285      -2.65042384       0.00000000
Si       2.71256519      -2.71634121       0.00097006       0.00000000
Si      -0.00119080      -2.71339272       2.71821375       0.00000000
Si       2.71341227       0.00201996       2.71821375       0.00000000
Si       2.71572545       2.71773630       0.00287554       0.00000000
