10
Lattice="16.28999089631971 0.0 0.0 0.0 16.28999089631971 0.0 0.0 0.0 34.64500226677339" Properties=species:S:1:pos:R:3:initial_magmoms:R:1 pbc="T T T"
Si       1.17245646      -1.45039644      -1.48135183       0.00000000
Si      -1.65485453      -1.09491606       1.32991845       0.00000000
Si      -1.52611466       1.26120438      -1.46652377       0.00000000
Si       1.94911968       0.94477113       1.39297238       0.00000000
Si       2.58791574      -2.66761782      -0.06568696       0.00000000
Si       2.52557391      -0.09542682      -2.84456415       0.00000000
Si       2.68731732       2.71631354      -0.04940380       0.00000000
Si      -0.59004239      -2.81970126       2.53338256       0.00000000
Si      -1.47201557       0.78925050       3.49329218       0.00000000
Si      -0.18667953       2.61880040      -2.84712788       0.00000000
