10
Lattice="16.28999089631971 0.0 0.0 0.0 16.28999089631971 0.0 0.0 0.0 34.64500226677339" Properties=species:S:1:pos:R:3:initial_magmoms:R:1 pbc="T T T"
Si       0.73819764       1.77154241      -1.44237619       0.00000000
Si       1.60731801      -1.91940183      -0.09066602       0.00000000
Si      -1.94911968      -0.94477113      -1.39297238       0.00000000
Si       0.39364785       0.61493121       2.54724057       0.00000000
Si       1.96533963       0.32231394      -2.86302994       0.00000000
Si       0.09086562      -1.60348986       3.13457762       0.00000000
Si       3.39315813      -1.00268208      -1.37800574       0.00000000
Si      -0.77666322      -2.39516757      -2.87432422       0.00000000
Si       1.75400946       3.43436273      -0.03405606       0.00000000
Si       0.63879606      -3.61238895      -1.45865935       0.00000000
