10
Lattice="16.28999089631971 0.0 0.0 0.0 16.28999089631971 0.0 0.0 0.0 34.64500226677339" Properties=species:S:1:pos:R:3:initial_magmoms:R:1 pbc="T T T"
Si      -0.30278223      -2.21842107       0.58733705       0.00000000
Si      -2.09572968       0.75654018       0.83089155       0.00000000
Si       1.99682820       0.89306667       1.22220707       0.00000000
Si      -0.39364785      -0.61493121      -2.54724057       0.00000000
Si      -1.65779257       2.83190966      -0.13182431       0.00000000
Si      -2.60446868      -2.68473861       0.27227522       0.00000000
Si       3.18396195       1.97979605      -0.62766386       0.00000000
Si       0.36233847      -2.64585438       2.77364579       0.00000000
Si       1.21367016      -2.53433304      -2.63790659       0.00000000
Si       1.23026967      -3.67474707      -0.52850980       0.00000000
