10
Lattice="10.86 0.0 0.0 0.0 10.86 0.0 0.0 0.0 10.86" Properties=species:S:1:pos:R:3:initial_magmoms:R:1 pbc="T T T"
Si       1.22496456      -1.43906946       1.16610336       0.00000000
Si      -1.78329888       1.02913704       1.12617114       0.00000000
Si      -1.54061046      -1.45099374      -1.45076568       0.00000000
Si       2.43636498      -0.19394874       2.53086870       0.00000000
Si      -0.27863502       2.52105126       2.53086870       0.00000000
Si       2.43636498      -2.90894874      -0.18413130       0.00000000
Si      -0.27863502      -2.90894874       2.53086870       0.00000000
Si      -2.99363502       2.52105126      -0.18413130       0.00000000
Si      -2.99363502      -0.19394874       2.53086870       0.00000000
Si       1.03101582       3.75033810       1.24333968       0.00000000
