10
Lattice="10.86 0.0 0.0 0.0 10.86 0.0 0.0 0.0 10.86" Properties=species:S:1:pos:R:3:initial_magmoms:R:1 pbc="T T T"
Si       1.20379842       1.18669392       1.32950292       0.00000000
Si      -1.51120158       1.18669392      -1.38549708       0.00000000
Si       1.20379842      -1.52830608      -1.38549708       0.00000000
Si      -0.15287622       2.49630132       2.56164594       0.00000000
Si       2.56129842       2.54419392      -0.02799708       0.00000000
Si       2.56129842      -0.17080608       2.68700292       0.00000000
Si      -0.15370158       2.54419392      -2.74299708       0.00000000
Si       2.56129842      -0.17080608      -2.74299708       0.00000000
Si       2.56129842      -2.88580608      -0.02799708       0.00000000
Si      -0.05663490      -2.93817300       2.55294708       0.00000000
