10
Lattice="10.86 0.0 0.0 0.0 10.86 0.0 0.0 0.0 10.86" Properties=species:S:1:pos:R:3:initial_magmoms:R:1 pbc="T T T"
Si      -1.32633180       1.32633180      -1.40345952       0.00000000
Si       1.60565100      -1.60565100      -1.42390890       0.00000000
Si      -2.56183056       2.56183056      -0.04012770       0.00000000
Si       0.15316944       2.56183056       2.67487230       0.00000000
Si      -2.56183056      -0.15316944       2.67487230       0.00000000
Si       0.15316944       2.56183056      -2.75512770       0.00000000
Si      -2.56183056      -0.15316944      -2.75512770       0.00000000
Si       2.86816944       2.56183056      -0.04012770       0.00000000
Si      -2.56183056      -2.86816944      -0.04012770       0.00000000
Si       2.86816944      -0.15316944       2.67487230       0.00000000
