10
Lattice="10.86 0.0 0.0 0.0 10.86 0.0 0.0 0.0 10.86" Properties=species:S:1:pos:R:3:initial_magmoms:R:1 pbc="T T T"
Si      -1.21526658      -1.23055746       1.21544034       0.00000000
Si       1.15171386       1.72279782       0.96308652       0.00000000
Si      -1.21526658       1.48444254      -1.49955966       0.00000000
Si       1.49973342      -1.23055746      -1.49955966       0.00000000
Si      -2.57276658       0.12694254       2.57294034       0.00000000
Si      -2.57276658      -2.58805746      -0.14205966       0.00000000
Si       0.14223342      -2.58805746       2.57294034       0.00000000
Si       2.68938126       0.27139140       2.46590418       0.00000000
Si      -2.57276658       2.84194254      -0.14205966       0.00000000
Si      -2.57276658       0.12694254      -2.85705966       0.00000000
