10
Lattice="10.86 0.0 0.0 0.0 10.86 0.0 0.0 0.0 10.86" Properties=species:S:1:pos:R:3:initial_magmoms:R:1 pbc="T T T"
Si      -1.22595282      -0.72365610      -1.80736464       0.00000000
Si      -1.42262742       1.84747062       0.93440526       0.00000000
Si       1.27747266       1.53341028      -1.61865042       0.00000000
Si      -0.32813490      -1.82293788       2.09449218       0.00000000
Si      -2.69511534      -2.06129316      -0.36815400       0.00000000
Si      -2.69511534       0.65370684       2.34684600       0.00000000
Si       0.01988466      -2.06129316      -3.08315400       0.00000000
Si       1.34974596      -3.25099530      -1.67110422       0.00000000
Si      -1.40727138      -0.58105344       3.70025178       0.00000000
Si      -1.47984876      -3.54573570       1.13140566       0.00000000
