10
Lattice="10.86 0.0 0.0 0.0 10.86 0.0 0.0 0.0 10.86" Properties=species:S:1:pos:R:3:initial_magmoms:R:1 pbc="T T T"
Si       1.35750000       1.35750000       1.35750000       0.00000000
Si      -1.35750000      -1.35750000       1.35750000       0.00000000
Si      -1.35750000       1.35750000      -1.35750000       0.00000000
Si       1.35750000      -1.35750000      -1.35750000       0.00000000
Si      -0.09991200       2.23720344       2.82200358       0.00000000
Si      -2.60333748      -0.01986294       2.63328936       0.00000000
Si      -0.02763870      -2.54720214       2.76954978       0.00000000
Si       2.57465622      -0.19983486       2.76507546       0.00000000
Si       2.49232656       0.03046230      -2.85795018       0.00000000
Si      -0.16785216      -2.57055114      -2.82203616       0.00000000
