10
Lattice="10.86 0.0 0.0 0.0 10.86 0.0 0.0 0.0 10.86" Properties=species:S:1:pos:R:3:initial_magmoms:R:1 pbc="T T T"
Si       1.45741200      -0.87970344      -1.46450358       0.00000000
Si      -1.27747266      -1.53341028       1.61865042       0.00000000
Si       1.45741200       1.83529656       1.25049642       0.00000000
Si      -1.25758800       1.83529656      -1.46450358       0.00000000
Si      -2.50342548      -2.25706638      -0.18871422       0.00000000
Si       0.09991200      -2.23720344      -2.82200358       0.00000000
Si       2.67456822      -2.43703830      -0.05692812       0.00000000
Si       2.71633578       0.47633046       2.39641104       0.00000000
Si      -2.70010008       0.31406034       2.55305568       0.00000000
Si      -2.61508800       0.47779656      -2.82200358       0.00000000
