10
Lattice="16.28999089631971 0.0 0.0 0.0 16.28999089631971 0.0 0.0 0.0 34.2284985734139" Properties=species:S:1:pos:R:3:initial_magmoms:R:1 pbc="T T T"
Si      -1.35662957      -1.34947056       1.39493874       0.00000000
Si       1.36277253       1.36314906       1.39267966       0.00000000
Si       1.40408397      -1.44323580      -1.44510748       0.00000000
Si      -1.39002244       1.36825923      -1.54624590       0.00000000
Si      -2.68803489       2.71370246       0.03254790       0.00000000
Si      -2.70450819      -2.71269921       0.01042943       0.00000000
Si       2.70964602       2.72144021       0.00601053       0.00000000
Si       2.71072116      -2.72433027       0.04113926       0.00000000
Si       0.00369783      -2.71147746       2.75548809       0.00000000
Si      -2.71217295       0.00561349       2.75583038       0.00000000
