10
Lattice="16.28999089631971 0.0 0.0 0.0 16.28999089631971 0.0 0.0 0.0 34.2284985734139" Properties=species:S:1:pos:R:3:initial_magmoms:R:1 pbc="T T T"
Si      -1.14519256      -1.39945761      -1.64871924       0.00000000
Si      -1.10121490       1.58868225       1.63687617       0.00000000
Si       0.17990839      -1.93549635       1.63348755       0.00000000
Si       1.62432640       1.21849200      -1.53025434       0.00000000
Si      -3.69438208      -0.04712697       1.06885392       0.00000000
Si      -1.71719962      -3.47420903      -0.33581599       0.00000000
Si       2.12293072      -3.18594607       1.19057053       0.00000000
Si       3.06317323       0.79931772       2.48872129       0.00000000
Si      -2.48835193       0.01865205      -3.18041118       0.00000000
Si      -0.04007992       3.87832320       1.37027025       0.00000000
