10
Lattice="16.28999089631971 0.0 0.0 0.0 16.28999089631971 0.0 0.0 0.0 34.2284985734139" Properties=species:S:1:pos:R:3:initial_magmoms:R:1 pbc="T T T"
Si       1.35777150       1.35694071      -1.35716073       0.00000000
Si      -1.35832536      -1.35676152      -1.35712650       0.00000000
Si      -1.35747828       1.35708732       1.35798221       0.00000000
Si       1.35782037      -1.35762489       1.35743456       0.00000000
Si      -2.71276718      -0.00293220      -2.71408185       0.00000000
Si      -0.00213399       2.71375110       2.71504025       0.00000000
Si       0.00112401       2.71300176      -2.71627248       0.00000000
Si       2.71498914      -0.00327429       2.71435568       0.00000000
Si      -2.71457212       2.71479366      -0.00023960       0.00000000
Si      -2.71503475      -2.71475619       0.00030806       0.00000000
