10
Lattice="16.28999089631971 0.0 0.0 0.0 16.28999089631971 0.0 0.0 0.0 34.2284985734139" Properties=species:S:1:pos:R:3:initial_magmoms:R:1 pbc="T T T"
Si      -0.53963883      -1.62248400       1.65450386       0.00000000
Si       0.08394237       2.21803011       0.95196353       0.00000000
Si       2.11585923      -0.38447658      -1.15298762       0.00000000
Si      -1.94237073       0.04468347      -1.90967746       0.00000000
Si      -0.29102085       1.96854876      -2.63833414       0.00000000
Si       3.35256345       0.59069169       0.57866732       0.00000000
Si       2.61211779      -0.92918160       2.18788685       0.00000000
Si       0.10889865      -3.68751843       0.70185576       0.00000000
Si       1.93044645       0.96311367      -3.07663031       0.00000000
Si      -0.82634283       3.60140949      -0.75333545       0.00000000
