10
Lattice="16.28999089631971 0.0 0.0 0.0 16.28999089631971 0.0 0.0 0.0 34.2284985734139" Properties=species:S:1:pos:R:3:initial_magmoms:R:1 pbc="T T T"
Si       1.00361061       0.46136538       2.03437195       0.00000000
Si       1.01278188      -2.00559222      -0.64411225       0.00000000
Si       0.17327673       1.95095556      -1.27593645       0.00000000
Si      -2.14821117      -0.81746478       0.49727191       0.00000000
Si      -0.88632261       3.13323489       0.49638196       0.00000000
Si      -1.22407947      -2.35520820       2.03005916       0.00000000
Si       0.37908459      -2.25798948      -2.89925813       0.00000000
Si       3.26847447       0.78395625       1.60076509       0.00000000
Si      -0.92429460       1.33520985      -3.35203297       0.00000000
Si       0.46934748       2.72337849       2.51606988       0.00000000
