10
Lattice="16.28999089631971 0.0 0.0 0.0 16.28999089631971 0.0 0.0 0.0 34.2284985734139" Properties=species:S:1:pos:R:3:initial_magmoms:R:1 pbc="T T T"
Si      -1.34718300      -0.87970887       1.72070181       0.00000000
Si       0.22388976       1.91940183      -1.38375629       0.00000000
Si      -2.00380032      -0.89717175      -1.38806908       0.00000000
Si       1.63466892       1.22660442       1.68233165       0.00000000
Si      -3.33117468      -1.44003600       0.46937566       0.00000000
Si       0.84999591      -3.53478339       0.76884096       0.00000000
Si       0.10912671      -2.42434296       2.86852093       0.00000000
Si       2.28450960      -2.56495824      -1.59737646       0.00000000
Si      -0.77972085       1.45803645      -3.41812823       0.00000000
Si       2.48875362       2.24199270      -1.81736315       0.00000000
