10
Lattice="16.28999089631971 0.0 0.0 0.0 16.28999089631971 0.0 0.0 0.0 34.2284985734139" Properties=species:S:1:pos:R:3:initial_magmoms:R:1 pbc="T T T"
Si      -2.18018748       0.07721460       0.88032325       0.00000000
Si       0.23463139       1.90099413      -1.37249510       0.00000000
Si       0.02696647      -2.16621651      -1.04362750       0.00000000
Si       1.36871023       0.42412644       1.96567531       0.00000000
Si      -1.32727566      -1.16989893       2.82727556       0.00000000
Si       1.03370638      -1.75138677       2.81406335       0.00000000
Si      -2.09929134       2.37938256       1.47654980       0.00000000
Si      -0.91010505       3.57132186      -0.17169024       0.00000000
Si      -1.09110324       1.71624924      -3.29538477       0.00000000
Si       2.20994212      -2.45125730      -2.05929031       0.00000000
