10
Lattice="16.28999089631971 0.0 0.0 0.0 16.28999089631971 0.0 0.0 0.0 34.2284985734139" Properties=species:S:1:pos:R:3:initial_magmoms:R:1 pbc="T T T"
Si      -1.71568465      -0.24458458      -1.57273193       0.00000000
Si      -0.02696647       2.16621651       1.04362750       0.00000000
Si      -0.70062217      -1.70887217       1.56800840       0.00000000
Si       2.18297566      -0.28504079      -1.01566281       0.00000000
Si       2.71759717      -2.00521985       0.51493382       0.00000000
Si       1.64457487      -1.62763394       2.65510612       0.00000000
Si      -1.33269046       1.62869538      -2.97692264       0.00000000
Si      -2.20715395       2.24343111       1.92395075       0.00000000
Si      -3.88580587      -0.22411456      -0.53150042       0.00000000
Si      -1.73925628      -2.38348994      -2.70278644       0.00000000
