10
Lattice="16.28999089631971 0.0 0.0 0.0 16.28999089631971 0.0 0.0 0.0 34.2284985734139" Properties=species:S:1:pos:R:3:initial_magmoms:R:1 pbc="T T T"
Si      -0.33500385      -2.17551321       0.84838804       0.00000000
Si       2.09624607       0.98795592      -0.52431243       0.00000000
Si      -1.36871023      -0.42412644      -1.96567531       0.00000000
Si      -0.62276344       1.29707496       1.98450100       0.00000000
Si      -2.69598590      -1.59402537       0.86160025       0.00000000
Si      -3.54889772      -0.34691184      -1.08535207       0.00000000
Si       3.00519549       1.79401770       1.46323490       0.00000000
Si       3.34120932      -0.58585356      -1.74052013       0.00000000
Si      -1.13407885       1.47686769      -3.33817042       0.00000000
Si      -1.25986697      -0.25339095       3.69955511       0.00000000
