10
Lattice="16.28999089631971 0.0 0.0 0.0 16.28999089631971 0.0 0.0 0.0 34.2284985734139" Properties=species:S:1:pos:R:3:initial_magmoms:R:1 pbc="T T T"
Si      -1.25382501      -1.38097890       1.31584691       0.00000000
Si      -1.51821171       0.56100154      -1.73377711       0.00000000
Si      -0.48744567       2.12000992       0.98016783       0.00000000
Si       2.11548456      -1.11486546      -0.07913633       0.00000000
Si       3.50717184       0.65273867      -0.80864873       0.00000000
Si      -0.43333029      -1.28713221       3.46971061       0.00000000
Si      -0.34860600      -0.05294250      -3.72368621       0.00000000
Si      -3.59715780      -0.77165176      -0.77863032       0.00000000
Si       0.30403656       3.70478257      -0.64554984       0.00000000
Si       1.93963401      -2.97718713      -1.50348764       0.00000000
