10
Lattice="16.28999089631971 0.0 0.0 0.0 16.28999089631971 0.0 0.0 0.0 34.2284985734139" Properties=species:S:1:pos:R:3:initial_magmoms:R:1 pbc="T T T"
Si      -1.35521397       1.35536058      -1.35685267       0.00000000
Si       1.35816246       1.35625653       1.35709227       0.00000000
Si      -1.35692442      -1.35850455       1.35685267       0.00000000
Si       1.36021500      -1.35993807      -1.36256883       0.00000000
Si      -2.69459406      -0.01840770      -2.71714531       0.00000000
Si      -2.71515204       2.71295289       0.00003423       0.00000000
Si       0.00087966       2.71402803       2.71408185       0.00000000
Si      -2.71463076      -0.00159642       2.71394494       0.00000000
Si      -2.71298547      -2.71593396      -0.00054766       0.00000000
Si       2.71596654       2.71326240      -0.00030806       0.00000000
