10
Lattice="16.28999089631971 0.0 0.0 0.0 16.28999089631971 0.0 0.0 0.0 34.2284985734139" Properties=species:S:1:pos:R:3:initial_magmoms:R:1 pbc="T T T"
Si      -1.34874684      -1.33499808      -1.37266625       0.00000000
Si      -1.42056945       1.31905017       1.35137611       0.00000000
Si       1.36704051       1.38036573      -1.36784002       0.00000000
Si       1.23347880      -1.49858226       1.48486733       0.00000000
Si       2.03431149       0.47503269       2.78733088       0.00000000
Si       0.30318948       2.39487435       2.59400821       0.00000000
Si      -2.68991883      -2.69755069      -0.00848867       0.00000000
Si       0.00337203      -2.69237047      -2.72838937       0.00000000
Si       2.73528648      -2.70020922       0.02498682       0.00000000
Si      -2.70915732       0.01894527      -2.72880012       0.00000000
