10
Lattice="16.28999089631971 0.0 0.0 0.0 16.28999089631971 0.0 0.0 0.0 34.2284985734139" Properties=species:S:1:pos:R:3:initial_magmoms:R:1 pbc="T T T"
Si       1.06745112       1.40089113       1.51926699       0.00000000
Si      -0.64376451      -2.10712779       0.74970722       0.00000000
Si      -1.64566467       1.45161819      -0.77722695       0.00000000
Si       1.75461219      -0.78853374      -1.31533348       0.00000000
Si      -2.29671081      -2.26567836      -0.89206363       0.00000000
Si      -1.21964859      -1.35016407       2.87481897       0.00000000
Si       0.22369428       0.44448894       3.47689860       0.00000000
Si      -1.36122498      -1.49962482      -2.90292059       0.00000000
Si       3.21308847       0.54902187       1.45580731       0.00000000
Si      -1.93460040       0.79058628      -2.93951087       0.00000000
