10
Lattice="16.28999089631971 0.0 0.0 0.0 16.28999089631971 0.0 0.0 0.0 34.2284985734139" Properties=species:S:1:pos:R:3:initial_magmoms:R:1 pbc="T T T"
Si       0.17585055       1.86232167       1.42435131       0.00000000
Si      -1.36689390      -1.37600001       1.53292417       0.00000000
Si       1.96234227      -1.63393587      -0.13448385       0.00000000
Si       0.67191363       0.17389575      -2.46195459       0.00000000
Si       0.70120305      -1.61438787       2.69645417       0.00000000
Si       1.01110401       0.64526319       3.33296768       0.00000000
Si       2.46399282      -1.49595957      -2.46951910       0.00000000
Si      -1.93963401       2.97718713       1.50348764       0.00000000
Si       1.20827817      -3.48187347       1.19522561       0.00000000
Si      -1.18482057      -0.73598220      -3.67665623       0.00000000
