10
Lattice="16.28999089631971 0.0 0.0 0.0 16.28999089631971 0.0 0.0 0.0 34.2284985734139" Properties=species:S:1:pos:R:3:initial_magmoms:R:1 pbc="T T T"
Si       0.08001648       2.30941701       0.13023951       0.00000000
Si       1.90658160      -0.66279123      -1.15617087       0.00000000
Si      -2.15816436      -0.50380083      -0.76117378       0.00000000
Si      -0.08444736       0.27093528       2.36039858       0.00000000
Si      -3.21362604       0.63335520       0.98376183       0.00000000
Si       0.90051120       2.40326370       2.28410321       0.00000000
Si      -2.19823776       2.69226459       0.37206399       0.00000000
Si       0.89766045      -3.65803353       0.48351204       0.00000000
Si      -2.29837239       0.02492370       3.03901317       0.00000000
Si      -2.37133530      -2.80758150      -1.17208713       0.00000000
