10
Lattice="16.28999089631971 0.0 0.0 0.0 16.28999089631971 0.0 0.0 0.0 34.2284985734139" Properties=species:S:1:pos:R:3:initial_magmoms:R:1 pbc="T T T"
Si       2.14563735      -0.85186926      -0.06345967       0.00000000
Si      -1.06745112      -1.40089113      -1.51926699       0.00000000
Si      -0.84375684      -0.95640219       1.95763161       0.00000000
Si       0.01347183       2.09818458      -1.09257429       0.00000000
Si      -2.71311579       0.05072706      -2.29649394       0.00000000
Si       1.56859668       1.47981618      -2.84219920       0.00000000
Si       2.95187832      -0.32716836       2.04655730       0.00000000
Si       0.68716107      -2.18942487      -2.83460046       0.00000000
Si       1.14642504      -1.27822743       3.28347325       0.00000000
Si      -2.18401659       2.30671287      -1.91111506       0.00000000
