10
Lattice="16.28999089631971 0.0 0.0 0.0 16.28999089631971 0.0 0.0 0.0 34.2284985734139" Properties=species:S:1:pos:R:3:initial_magmoms:R:1 pbc="T T T"
Si       0.80724185      -0.15143184      -2.19610170       0.00000000
Si      -1.84699278      -1.45163448       0.07396783       0.00000000
Si       1.54295037      -1.21715622       1.34429080       0.00000000
Si       0.12167001       2.29509810       0.73581045       0.00000000
Si       3.08749976       0.07294662      -1.52080727       0.00000000
Si      -3.46032180       0.15964200       0.51883587       0.00000000
Si       2.57587973       0.56306385       2.56378443       0.00000000
Si       0.15296986      -2.30918895      -2.87454515       0.00000000
Si       2.43308159       2.54252691       1.30859046       0.00000000
Si      -2.02527054      -2.49326595      -2.01054890       0.00000000
