10
Lattice="16.28999089631971 0.0 0.0 0.0 16.28999089631971 0.0 0.0 0.0 34.2284985734139" Properties=species:S:1:pos:R:3:initial_magmoms:R:1 pbc="T T T"
Si       1.34412048       1.35475785      -1.36182607       0.00000000
Si       1.35658233      -1.35951453       1.35609964       0.00000000
Si      -1.36021500       1.35456737       1.35787953       0.00000000
Si      -1.36257705      -1.38991167      -1.37009911       0.00000000
Si       2.57821830      -0.03590316      -2.79008970       0.00000000
Si      -2.71288773       2.70847381       0.00030806       0.00000000
Si       2.71230129       2.71186376      -0.00332017       0.00000000
Si      -0.00117288       2.71200711       2.71421877       0.00000000
Si       2.71332756      -0.00192222       2.71449260       0.00000000
Si      -2.71120986      -2.71834488       0.00078726       0.00000000
