10
Lattice="16.28999089631971 0.0 0.0 0.0 16.28999089631971 0.0 0.0 0.0 34.2284985734139" Properties=species:S:1:pos:R:3:initial_magmoms:R:1 pbc="T T T"
Si       1.35435060      -1.35995436      -1.36188426       0.00000000
Si      -1.35949824       1.35493704      -1.36222655       0.00000000
Si       1.36311462       1.35207000       1.36746351       0.00000000
Si      -1.37090124      -1.37428956       1.35935135       0.00000000
Si      -2.71316466       2.71259913       0.00212217       0.00000000
Si       2.71123260       2.71530923      -0.00284097       0.00000000
Si      -2.71406061      -2.71435383      -0.00595576       0.00000000
Si      -0.00068418       2.71392550      -2.71887385       0.00000000
Si       2.71557558      -2.71735119      -0.00013691       0.00000000
Si       2.71405613      -0.00063531      -2.71904499       0.00000000
