10
Lattice="16.28999089631971 0.0 0.0 0.0 16.28999089631971 0.0 0.0 0.0 34.2284985734139" Properties=species:S:1:pos:R:3:initial_magmoms:R:1 pbc="T T T"
Si       2.14026328       0.90508869      -0.28697189       0.00000000
Si      -1.32573463      -0.18474489      -1.92288967       0.00000000
Si      -1.14473644       1.67032773       1.20080486       0.00000000
Si      -0.23463139      -1.90099413       1.37249510       0.00000000
Si       1.59345685       2.81543328      -1.48852978       0.00000000
Si      -3.31348930       0.93851577      -1.27795594       0.00000000
Si      -2.33392273       0.47838843       2.84904490       0.00000000
Si       3.31079752      -0.60144309      -1.68483033       0.00000000
Si      -2.41481887      -1.82377953       2.25281835       0.00000000
Si       1.13407885      -1.47686769       3.33817042       0.00000000
