10
Lattice="16.28999089631971 0.0 0.0 0.0 16.28999089631971 0.0 0.0 0.0 34.2284985734139" Properties=species:S:1:pos:R:3:initial_magmoms:R:1 pbc="T T T"
Si       1.64886470      -0.86128488      -1.36349300       0.00000000
Si      -1.18936548      -1.82110797       0.77003896       0.00000000
Si      -1.08475110       1.49682491      -1.44683944       0.00000000
Si       0.92303605       0.95812893       1.98029089       0.00000000
Si      -1.60560756      -0.96454719       2.92075364       0.00000000
Si       0.17831034       1.02828996      -3.38191446       0.00000000
Si       2.52350738       1.10952819      -2.29481674       0.00000000
Si       3.03612110      -2.03668983       0.01612163       0.00000000
Si      -0.95495238       1.40809131       3.34809669       0.00000000
Si       1.98697994       2.97365872       1.29431717       0.00000000
