10
Lattice="16.28999089631971 0.0 0.0 0.0 16.28999089631971 0.0 0.0 0.0 34.2284985734139" Properties=species:S:1:pos:R:3:initial_magmoms:R:1 pbc="T T T"
Si       1.81615581      -1.09190241      -1.07501506       0.00000000
Si      -0.96381414       2.02217544      -0.92163707       0.00000000
Si      -1.81180312      -1.58884515      -0.55374896       0.00000000
Si       0.20587302      -1.00458801       2.28475356       0.00000000
Si       1.87945875       1.97555346       0.79512847       0.00000000
Si       0.90720639      -1.89796419      -3.06256239       0.00000000
Si       2.74028751      -2.62964583       0.45777220       0.00000000
Si      -0.13199787       2.11299219      -3.20046909       0.00000000
Si       0.22771791       3.26767626       2.11070154       0.00000000
Si      -3.85080029      -0.40596309      -0.91735850       0.00000000
