10
Lattice="16.28999089631971 0.0 0.0 0.0 16.28999089631971 0.0 0.0 0.0 34.2284985734139" Properties=species:S:1:pos:R:3:initial_magmoms:R:1 pbc="T T T"
Si      -1.36533888      -1.34372952      -1.38413280       0.00000000
Si       1.34911988       1.37342619      -1.38782948       0.00000000
Si      -1.34897800       1.36661697       1.40864042       0.00000000
Si       1.27293155      -1.49574780       1.53083623       0.00000000
Si       2.68359668      -2.70959715      -0.01773037       0.00000000
Si       2.69912105       2.70319518      -0.03138755       0.00000000
Si      -2.72920284      -2.69946477      -0.02214585       0.00000000
Si      -2.71779984       2.72569167      -0.01653237       0.00000000
Si      -0.00957200      -2.70148473      -2.74639357       0.00000000
Si       2.70441530       0.01567098      -2.74584592       0.00000000
