10
Lattice="16.28999089631971 0.0 0.0 0.0 16.28999089631971 0.0 0.0 0.0 34.2284985734139" Properties=species:S:1:pos:R:3:initial_magmoms:R:1 pbc="T T T"
Si       2.25170154       0.48107628       0.20852013       0.00000000
Si      -0.94644900       1.41727887      -1.58200786       0.00000000
Si      -0.87262272       0.24022863       2.14804486       0.00000000
Si      -0.21820455      -2.22935166      -0.68135287       0.00000000
Si      -0.29636397       3.45028294      -0.56607123       0.00000000
Si      -3.18403430      -0.00720018       1.57526484       0.00000000
Si       3.30716322      -0.65607975      -1.53641547       0.00000000
Si      -2.49846246      -2.45373012      -1.35664730       0.00000000
Si       0.62218026      -3.52603566       1.13395656       0.00000000
Si      -0.72982458      -1.73923443       3.40323883       0.00000000
