10
Lattice="16.28999089631971 0.0 0.0 0.0 16.28999089631971 0.0 0.0 0.0 34.2284985734139" Properties=species:S:1:pos:R:3:initial_magmoms:R:1 pbc="T T T"
Si       1.35279002       1.34528521      -1.38053880       0.00000000
Si       1.31577914      -1.45922466       1.32789534       0.00000000
Si      -1.36538633      -1.37099548      -1.37691058       0.00000000
Si      -1.39538904       1.28439319       1.55647339       0.00000000
Si      -1.96606032      -0.78670763       2.86680950       0.00000000
Si      -0.17839342      -2.54091324       2.75214397       0.00000000
Si       2.68857002       2.69274514      -0.00047920       0.00000000
Si      -0.00656324       2.69826745      -2.73574851       0.00000000
Si      -2.73441075       2.70126481       0.02307002       0.00000000
Si       2.70824834      -0.01489395      -2.73595388       0.00000000
