10
Lattice="16.28999089631971 0.0 0.0 0.0 16.28999089631971 0.0 0.0 0.0 34.2284985734139" Properties=species:S:1:pos:R:3:initial_magmoms:R:1 pbc="T T T"
Si      -1.31667183       1.30111296      -1.44178389       0.00000000
Si       1.34372952       1.35723364       1.36391744       0.00000000
Si      -1.37389860      -1.35433853       1.36093956       0.00000000
Si       1.27726632      -1.46585987      -1.38775418       0.00000000
Si      -2.16630936      -0.54620792      -2.65665599       0.00000000
Si      -0.61757019      -2.39566049      -2.55310685       0.00000000
Si       2.68848531       2.70907883      -0.00704765       0.00000000
Si       2.69636967       0.00333888       2.72148891       0.00000000
Si      -0.01752804      -2.71233809       2.72087279       0.00000000
Si       2.69400762      -2.74125284      -0.00653080       0.00000000
