10
Lattice="16.28999089631971 0.0 0.0 0.0 16.28999089631971 0.0 0.0 0.0 34.2284985734139" Properties=species:S:1:pos:R:3:initial_magmoms:R:1 pbc="T T T"
Si      -1.87462062       1.29100905       0.46150310       0.00000000
Si      -0.69838488      -2.05442005      -0.84250073       0.00000000
Si       0.06449211      -0.22692640       2.33664399       0.00000000
Si       2.07656775       1.32937200      -0.95381187       0.00000000
Si       2.34261603      -0.60990430       2.09461414       0.00000000
Si      -0.54442809       3.21719404       0.32510246       0.00000000
Si      -0.17743068      -1.21669051      -3.16069555       0.00000000
Si      -3.13056333       0.83908373      -1.41178944       0.00000000
Si       0.10466325      -3.42300811       1.20299548       0.00000000
Si       3.59585460       0.77228007       0.77931489       0.00000000
