10
Lattice="16.28999089631971 0.0 0.0 0.0 16.28999089631971 0.0 0.0 0.0 34.2284985734139" Properties=species:S:1:pos:R:3:initial_magmoms:R:1 pbc="T T T"
Si       0.85442679       0.60271371       2.11788953       0.00000000
Si      -1.64561580      -1.68674479      -0.16652174       0.00000000
Si      -0.30978693       2.06436654      -1.16424880       0.00000000
Si       1.92463092      -1.00734102      -0.99844586       0.00000000
Si      -1.64126637      -1.96362755      -2.58589606       0.00000000
Si       2.03480019       2.69236233      -1.55876670       0.00000000
Si       2.68685631       0.62724645      -2.51148326       0.00000000
Si      -1.11091284      -3.40697924       1.36400643       0.00000000
Si      -1.48066326       3.57053994       0.23289083       0.00000000
Si      -1.80230931       1.68280587      -3.01549818       0.00000000
