10
Lattice="16.28999089631971 0.0 0.0 0.0 16.28999089631971 0.0 0.0 0.0 34.2284985734139" Properties=species:S:1:pos:R:3:initial_magmoms:R:1 pbc="T T T"
Si       0.42451740      -1.66403653       1.58478037       0.00000000
Si      -1.24494696       1.57380948       1.21620769       0.00000000
Si      -0.85442679      -0.60271371      -2.11788953       0.00000000
Si       2.19121677       0.93936285      -0.19274078       0.00000000
Si       1.94759982      -2.97368248       0.38294866       0.00000000
Si       1.67311332      -0.54705078       3.20433691       0.00000000
Si       1.07020413      -1.61005473      -3.11633539       0.00000000
Si       2.82499551       1.19174382       2.06240511       0.00000000
Si      -1.16421372       1.46165283      -3.28213833       0.00000000
Si      -3.34119303       0.58585356       1.74052013       0.00000000
