10
Lattice="16.28999089631971 0.0 0.0 0.0 16.28999089631971 0.0 0.0 0.0 34.2284985734139" Properties=species:S:1:pos:R:3:initial_magmoms:R:1 pbc="T T T"
Si       1.17022473      -1.50651549       1.31142800       0.00000000
Si      -1.40732568      -1.35734796      -1.25191591       0.00000000
Si      -1.55370762       1.22930856       1.30879583       0.00000000
Si       1.28344023       1.03848750      -1.72614213       0.00000000
Si      -2.34009108       0.29180277      -2.59787402       0.00000000
Si       2.56238442       2.57375484      -0.35983072       0.00000000
Si       2.50953966      -0.13268205       2.67172406       0.00000000
Si      -0.43707699       1.87932843      -3.14022489       0.00000000
Si      -0.20898441       2.58012423       2.66977304       0.00000000
Si       2.43944379      -2.98287819      -0.13847147       0.00000000
