10
Lattice="16.28999089631971 0.0 0.0 0.0 16.28999089631971 0.0 0.0 0.0 34.2284985734139" Properties=species:S:1:pos:R:3:initial_magmoms:R:1 pbc="T T T"
Si      -0.91061100       1.38277665      -1.70492247       0.00000000
Si      -0.09065385      -2.21897493      -0.94802725       0.00000000
Si       2.35696752       0.53266671      -0.04764610       0.00000000
Si      -1.12321179       0.37282923       2.11696536       0.00000000
Si      -0.38090907      -0.24263955      -3.58642986       0.00000000
Si       3.26946816      -1.63227429      -0.37302239       0.00000000
Si      -3.38164110       0.81692721       1.37660252       0.00000000
Si       1.99842462      -2.60788239      -2.09098592       0.00000000
Si      -0.62416764      -3.84061185       0.70353295       0.00000000
Si      -0.69654411       3.68683425      -1.29424871       0.00000000
