10
Lattice="16.28999089631971 0.0 0.0 0.0 16.28999089631971 0.0 0.0 0.0 34.2284985734139" Properties=species:S:1:pos:R:3:initial_magmoms:R:1 pbc="T T T"
Si       0.11776041       2.28227787       0.34519460       0.00000000
Si       1.05956676      -1.18229562      -1.77224996       0.00000000
Si      -1.19874852      -0.88327638       1.87113615       0.00000000
Si       1.35563751      -0.40990527       2.01979060       0.00000000
Si       0.88630632      -3.13323489      -0.49634774       0.00000000
Si      -1.78370613       2.64256380      -0.93981241       0.00000000
Si       3.08952882       0.08017938      -1.82355851       0.00000000
Si       1.88990064      -2.67188580       1.53805844       0.00000000
Si      -2.02642713       1.28661678      -2.78089592       0.00000000
Si      -0.71011368       2.72653875       2.55194137       0.00000000
