10
Lattice="16.28999089631971 0.0 0.0 0.0 16.28999089631971 0.0 0.0 0.0 34.2284985734139" Properties=species:S:1:pos:R:3:initial_magmoms:R:1 pbc="T T T"
Si       1.44448317      -1.12816395       1.42582313       0.00000000
Si      -0.86481981      -1.75311351      -1.32556781       0.00000000
Si       1.27544184       0.56452995      -1.96023298       0.00000000
Si      -1.32126561       1.57802859       1.27063103       0.00000000
Si      -0.41171346       2.18271339      -2.29084623       0.00000000
Si       3.12642567       0.81428823      -0.34646106       0.00000000
Si      -2.30327568       2.39459742      -0.73269565       0.00000000
Si      -0.14647968      -2.19527298       2.94516683       0.00000000
Si      -2.75786279      -2.51576244      -0.02443916       0.00000000
Si       2.25344457      -2.97445626      -0.14461549       0.00000000
