10
Lattice="16.28999089631971 0.0 0.0 0.0 16.28999089631971 0.0 0.0 0.0 34.2284985734139" Properties=species:S:1:pos:R:3:initial_magmoms:R:1 pbc="T T T"
Si       0.69838488       2.05442005       0.84250073       0.00000000
Si       0.52095420       0.83772954      -2.31819482       0.00000000
Si       0.80304813      -1.36858806       2.04549622       0.00000000
Si      -2.59972110       0.56710377      -0.28611618       0.00000000
Si      -1.19376378      -2.64712500      -2.05518289       0.00000000
Si      -0.39102516      -0.87723279      -3.56753571       0.00000000
Si       0.76287699       1.82749365       3.17914472       0.00000000
Si      -1.17623574       3.34542910       1.30400384       0.00000000
Si      -0.25259274      -0.23143203       3.79063719       0.00000000
Si      -2.43217845       2.89350378      -0.56928871       0.00000000
