10
Lattice="16.28999089631971 0.0 0.0 0.0 16.28999089631971 0.0 0.0 0.0 34.2284985734139" Properties=species:S:1:pos:R:3:initial_magmoms:R:1 pbc="T T T"
Si       1.35604476       1.35741312       1.35740033       0.00000000
Si      -1.35930276      -1.35761512       1.35750301       0.00000000
Si       1.35933534      -1.36181468      -1.35654461       0.00000000
Si      -1.36032903       1.35754344      -1.36048089       0.00000000
Si       0.01847286       2.69746110      -2.71660107       0.00000000
Si       2.71197549      -2.71570943       0.00102686       0.00000000
Si       2.71342530      -0.00027693       2.71480065       0.00000000
Si      -0.00164529       2.71432125       2.71449260       0.00000000
Si       2.71298547       2.71593396       0.00054766       0.00000000
Si      -0.00130320      -2.71553311       2.71452682       0.00000000
