10
Lattice="16.28999089631971 0.0 0.0 0.0 16.28999089631971 0.0 0.0 0.0 34.2284985734139" Properties=species:S:1:pos:R:3:initial_magmoms:R:1 pbc="T T T"
Si       1.35340578      -1.35780049      -1.36455409       0.00000000
Si      -1.36326123       1.35943897      -1.36434872       0.00000000
Si      -1.36941885      -1.36705321       1.36938031       0.00000000
Si       1.36879983       1.35127116       1.38923285       0.00000000
Si      -0.13198158       2.55144831       2.84770999       0.00000000
Si       2.71285515      -2.71270495      -0.00243022       0.00000000
Si       2.71241532       2.71592844      -0.00075303       0.00000000
Si      -2.71836117      -2.71229770      -0.00527119       0.00000000
Si      -2.71510317       2.71641714      -0.00917324       0.00000000
Si       2.71221984       0.00120399      -2.72120139       0.00000000
