10
Lattice="16.28999089631971 0.0 0.0 0.0 16.28999089631971 0.0 0.0 0.0 34.2284985734139" Properties=species:S:1:pos:R:3:initial_magmoms:R:1 pbc="T T T"
Si      -1.34905635      -1.33486776      -1.37324813       0.00000000
Si      -1.41708339       1.32046740       1.35295062       0.00000000
Si       1.36614456       1.38070782      -1.36777157       0.00000000
Si       1.23406524      -1.49983659       1.48363510       0.00000000
Si       2.01934098       0.47855133       2.79534036       0.00000000
Si       0.38744136       2.33220672       2.59000348       0.00000000
Si      -2.69011431      -2.69729494      -0.00831753       0.00000000
Si       0.00278559      -2.69184594      -2.72842360       0.00000000
Si       2.73484665      -2.70001374       0.02515796       0.00000000
Si      -2.70953199       0.01935252      -2.72869743       0.00000000
