10
Lattice="16.28999089631971 0.0 0.0 0.0 16.28999089631971 0.0 0.0 0.0 34.2284985734139" Properties=species:S:1:pos:R:3:initial_magmoms:R:1 pbc="T T T"
Si      -1.27894419      -1.53526734      -1.36631142       0.00000000
Si       1.88367786       0.80055576      -1.35498178       0.00000000
Si       1.28296782      -1.34241003       1.65073188       0.00000000
Si      -1.37300265       1.34166069       1.66385167       0.00000000
Si      -2.56238442      -2.57375484       0.35983072       0.00000000
Si       2.65774608       2.67178806       0.19863493       0.00000000
Si       2.61229698      -2.72684826       0.30113565       0.00000000
Si      -2.78363520       2.63029743       0.38685071       0.00000000
Si       3.71607480      -0.97757919      -0.98038210       0.00000000
Si       2.66031990       0.00878031       3.02758427       0.00000000
