10
Lattice="16.28999089631971 0.0 0.0 0.0 16.28999089631971 0.0 0.0 0.0 34.2284985734139" Properties=species:S:1:pos:R:3:initial_magmoms:R:1 pbc="T T T"
Si       1.32932916      -1.38443823      -1.34959622       0.00000000
Si      -1.33581258      -1.36402686       1.38082290       0.00000000
Si       1.37735208       1.35119034       1.37685239       0.00000000
Si      -1.28296782       1.34241003      -1.65073188       0.00000000
Si       2.43310698       0.36483084      -2.63111398       0.00000000
Si       0.60071004       2.14296579      -3.00571366       0.00000000
Si      -2.65597047       2.68407072       0.01311979       0.00000000
Si      -2.67512751      -2.73786030       0.02052684       0.00000000
Si      -2.69578323      -0.00643455       2.73770980       0.00000000
Si       0.01834254       2.70998811       2.73709369       0.00000000
