10
Lattice="16.28999089631971 0.0 0.0 0.0 16.28999089631971 0.0 0.0 0.0 34.2284985734139" Properties=species:S:1:pos:R:3:initial_magmoms:R:1 pbc="T T T"
Si       1.35563751       1.35852084      -1.35736610       0.00000000
Si       1.35757602      -1.35698958       1.35726341       0.00000000
Si      -1.35848826      -1.35790182      -1.35674998       0.00000000
Si      -1.35804843       1.35812988       1.35736610       0.00000000
Si       2.71129131      -0.00242721       2.71384225       0.00000000
Si      -0.00198738       2.71358820       2.71428723       0.00000000
Si       0.00470781       2.71458189      -2.71339728       0.00000000
Si       0.00148239      -2.71549413      -2.71363688       0.00000000
Si      -0.00084708      -2.71479366       2.71435568       0.00000000
Si       2.71485882      -2.71456560       0.00037651       0.00000000
