10
Lattice="16.28999089631971 0.0 0.0 0.0 16.28999089631971 0.0 0.0 0.0 34.2284985734139" Properties=species:S:1:pos:R:3:initial_magmoms:R:1 pbc="T T T"
Si      -1.34894232      -1.34524449      -1.37465150       0.00000000
Si       1.36941885       1.36705321      -1.36938031       0.00000000
Si      -1.46254878       1.23777936       1.41596532       0.00000000
Si       1.22495913      -1.54274445       1.40610751       0.00000000
Si       0.12297321       2.11737976       2.86057991       0.00000000
Si      -2.70904329      -2.69848737      -0.00917324       0.00000000
Si      -2.68674228       2.72104317      -0.01362295       0.00000000
Si       2.71150308      -2.72010420      -0.01228804       0.00000000
Si      -2.70617625       0.00891063      -2.73283908       0.00000000
Si       0.00733050      -2.70596448      -2.73403708       0.00000000
