10
Lattice="16.28999089631971 0.0 0.0 0.0 16.28999089631971 0.0 0.0 0.0 34.2284985734139" Properties=species:S:1:pos:R:3:initial_magmoms:R:1 pbc="T T T"
Si       0.17897823       1.86367374       1.42486473       0.00000000
Si      -1.36676358      -1.37702628       1.53477251       0.00000000
Si       0.67165299       0.17106129      -2.46161231       0.00000000
Si       1.96283097      -1.63475037      -0.13414156       0.00000000
Si       0.70117047      -1.61577252       2.69693337       0.00000000
Si       1.01151126       0.64368306       3.33276231       0.00000000
Si       2.46299913      -1.49713245      -2.46890298       0.00000000
Si      -1.94031819       2.97702423       1.50454872       0.00000000
Si       1.20744738      -3.48597855       1.19505447       0.00000000
Si      -1.18491831      -0.73691073      -3.67542400       0.00000000
