10
Lattice="16.28999089631971 0.0 0.0 0.0 16.28999089631971 0.0 0.0 0.0 34.2284985734139" Properties=species:S:1:pos:R:3:initial_magmoms:R:1 pbc="T T T"
Si       1.85331330      -1.40405139      -0.23484186       0.00000000
Si      -1.76207301      -1.45153674      -0.66047348       0.00000000
Si       0.27331362       1.51964523      -1.81907457       0.00000000
Si      -0.45196605       1.19203704       2.04231297       0.00000000
Si      -2.00844297       1.93249899      -2.21095687       0.00000000
Si       1.15023690      -2.46097917      -2.36108315       0.00000000
Si      -2.99328750      -0.19945476      -2.13459305       0.00000000
Si       3.90083598      -0.18226881       0.00612690       0.00000000
Si      -0.21833487      -0.22336848       3.91245649       0.00000000
Si       2.06078274      -3.02275611       1.51163403       0.00000000
