10
Lattice="16.28999089631971 0.0 0.0 0.0 16.28999089631971 0.0 0.0 0.0 34.2284985734139" Properties=species:S:1:pos:R:3:initial_magmoms:R:1 pbc="T T T"
Si       1.35545832       1.35677781       1.35705804       0.00000000
Si       1.35749457      -1.35708732      -1.35798221       0.00000000
Si      -1.35707755       1.35770634      -1.35822181       0.00000000
Si      -1.35910891      -1.35954711       1.35644193       0.00000000
Si       0.00024435      -2.71252935       2.71165163       0.00000000
Si      -2.70878984      -0.00171045       2.71767585       0.00000000
Si      -2.71377712       0.00030951      -2.71500602       0.00000000
Si      -0.00083079      -2.71384884      -2.71510871       0.00000000
Si      -2.71419715      -2.71505430      -0.00061611       0.00000000
Si       2.71531494      -2.71469592      -0.00054766       0.00000000
