10
Lattice="16.28999089631971 0.0 0.0 0.0 16.28999089631971 0.0 0.0 0.0 34.2284985734139" Properties=species:S:1:pos:R:3:initial_magmoms:R:1 pbc="T T T"
Si      -1.51044138       0.82386579      -1.65149175       0.00000000
Si       2.26474983      -0.70898967      -0.41016033       0.00000000
Si      -0.93781530      -2.26719333       0.27163752       0.00000000
Si      -0.37931265       1.51284320       1.92295812       0.00000000
Si      -3.21417990      -1.52769249      -0.18685348       0.00000000
Si       0.34917615      -2.80908018       2.20445345       0.00000000
Si       2.49838101      -2.12439519       1.45998319       0.00000000
Si      -3.03352380       2.13351174      -0.44966004       0.00000000
Si      -1.78492788       3.25049750       1.16989651       0.00000000
Si      -3.13031898      -0.74668473      -2.36128852       0.00000000
