10
Lattice="16.28999089631971 0.0 0.0 0.0 16.28999089631971 0.0 0.0 0.0 34.2284985734139" Properties=species:S:1:pos:R:3:initial_magmoms:R:1 pbc="T T T"
Si      -1.31639490       2.01986782      -0.13277242       0.00000000
Si      -1.64142927      -1.51883073      -0.92191090       0.00000000
Si       1.65532464      -0.60554817      -1.72645220       0.00000000
Si       1.03477338       0.07869699       2.26195736       0.00000000
Si       2.09655558      -2.39181183       0.00735913       0.00000000
Si      -2.92079700       0.40220010      -1.35079422       0.00000000
Si       2.01750021       1.57817587      -2.58949005       0.00000000
Si      -0.68279535      -0.93470391       3.60420271       0.00000000
Si      -1.67958045       1.53064817      -3.06882621       0.00000000
Si       0.11811879       2.98961315      -2.49892139       0.00000000
