10
Lattice="16.28999089631971 0.0 0.0 0.0 16.28999089631971 0.0 0.0 0.0 34.2284985734139" Properties=species:S:1:pos:R:3:initial_magmoms:R:1 pbc="T T T"
Si       1.71553804       0.24428158       1.57307422       0.00000000
Si       0.38286387       1.87298836      -1.40634711       0.00000000
Si      -2.17018638       0.02115419       1.04075231       0.00000000
Si      -0.02357163      -2.13955533      -1.12875383       0.00000000
Si      -2.78513388       1.92366655      -0.20037374       0.00000000
Si      -1.75808196       2.01407605      -2.34431118       0.00000000
Si       1.01486700      -1.46443257       3.14104838       0.00000000
Si      -2.34051462      -2.56205277      -1.42808222       0.00000000
Si       2.43527911       1.37713705      -2.56131998       0.00000000
Si       1.01506248      -3.77489214       0.27916779       0.00000000
