10
Lattice="16.28999089631971 0.0 0.0 0.0 16.28999089631971 0.0 0.0 0.0 34.2284985734139" Properties=species:S:1:pos:R:3:initial_magmoms:R:1 pbc="T T T"
Si       1.35935326      -1.35298224       1.35520970       0.00000000
Si      -1.35508824      -1.35550719      -1.35705804       0.00000000
Si      -1.34968093       1.35783666       1.36123392       0.00000000
Si       1.35910891       1.35954711      -1.35644193       0.00000000
Si      -2.71281184      -2.71323471       0.00020537       0.00000000
Si       0.00156873      -2.71229477      -2.71411608       0.00000000
Si      -2.71313764       0.00239463      -2.71462951       0.00000000
Si       2.71481158      -2.71316140      -0.00020537       0.00000000
Si       2.69513326      -0.00552231       2.73526931       0.00000000
Si       2.71456723       2.71632492       0.00061611       0.00000000
