10
Lattice="16.28999089631971 0.0 0.0 0.0 16.28999089631971 0.0 0.0 0.0 34.2284985734139" Properties=species:S:1:pos:R:3:initial_magmoms:R:1 pbc="T T T"
Si       1.16763462       1.45888353      -1.40247928       0.00000000
Si      -1.57086099      -0.75918568      -1.62612842       0.00000000
Si      -1.11643515       1.52941923       1.65049912       0.00000000
Si       1.42645014      -1.85553593       0.96630528       0.00000000
Si       0.20794185       0.59328180       3.43462197       0.00000000
Si      -1.93303656      -2.94290972      -0.76309057       0.00000000
Si      -3.47024241       0.65225160      -1.53555976       0.00000000
Si       3.34230142       1.81050318      -0.62271942       0.00000000
Si       0.13491378       3.59271063      -1.46456982       0.00000000
Si       1.88866260      -1.24748168       3.25530215       0.00000000
