10
Lattice="16.28999089631971 0.0 0.0 0.0 16.28999089631971 0.0 0.0 0.0 34.2284985734139" Properties=species:S:1:pos:R:3:initial_magmoms:R:1 pbc="T T T"
Si      -1.10301219      -1.69842798      -1.15231914       0.00000000
Si       1.29222137      -1.38580659       1.36590611       0.00000000
Si       1.24150977       1.36930482      -1.48128501       0.00000000
Si      -1.43899344       1.33648047       1.35968337       0.00000000
Si       2.58058591       2.66266566      -0.05038438       0.00000000
Si       2.59017909      -2.73118955      -0.21287400       0.00000000
Si       2.62798818      -0.02445129       2.73205525       0.00000000
Si       0.57770856      -3.53919146      -1.33163895       0.00000000
Si      -0.35538264       2.87639046      -2.49910421       0.00000000
Si      -0.09031176       2.69433342       2.72965925       0.00000000
