10
Lattice="16.28999089631971 0.0 0.0 0.0 16.28999089631971 0.0 0.0 0.0 34.2284985734139" Properties=species:S:1:pos:R:3:initial_magmoms:R:1 pbc="T T T"
Si       1.35705474      -1.35721764       1.35722918       0.00000000
Si      -1.35817875      -1.35628911      -1.35716073       0.00000000
Si      -1.35728280       1.35757602       1.35688690       0.00000000
Si       1.35778779       1.35697329      -1.35746878       0.00000000
Si      -0.00356751       2.71213839       2.71346574       0.00000000
Si      -2.71337643      -0.00092853      -2.71401340       0.00000000
Si       2.71451673       2.71464705      -0.00010269       0.00000000
Si       2.71443528       0.00030951       2.71493757       0.00000000
Si      -2.71485882       2.71456560      -0.00037651       0.00000000
Si      -0.00074934      -2.71490769       2.71476642       0.00000000
