10
Lattice="16.28999089631971 0.0 0.0 0.0 16.28999089631971 0.0 0.0 0.0 34.2284985734139" Properties=species:S:1:pos:R:3:initial_magmoms:R:1 pbc="T T T"
Si       1.43816495       1.30838022       1.24738987       0.00000000
Si      -1.00406673       1.63385442      -1.35798221       0.00000000
Si       1.71765574      -1.09928178      -1.32638929       0.00000000
Si      -1.97372898      -0.53093997       1.51714482       0.00000000
Si      -2.57540013      -2.38280346       0.10521846       0.00000000
Si       1.42786804       0.06450840       3.22768076       0.00000000
Si      -2.35804266       0.27880335      -2.72698601       0.00000000
Si       0.36396747      -2.43965556      -2.72168059       0.00000000
Si      -2.42704710       2.92770396       0.04538701       0.00000000
Si       3.09704570      -2.59287930       0.32441789       0.00000000
