10
Lattice="16.28999089631971 0.0 0.0 0.0 16.28999089631971 0.0 0.0 0.0 34.2284985734139" Properties=species:S:1:pos:R:3:initial_magmoms:R:1 pbc="T T T"
Si       2.27488221      -0.57024774       0.42730881       0.00000000
Si      -0.20746944       1.61870472      -1.74647589       0.00000000
Si      -0.88705566      -2.07752886      -0.87111578       0.00000000
Si      -0.48863484       1.21858974       2.10710755       0.00000000
Si       3.35109965       1.48129857      -0.26109513       0.00000000
Si       1.84005324       2.84048730      -1.50550712       0.00000000
Si      -0.96089823      -0.57782259       3.55377585       0.00000000
Si       0.66863934      -2.69506647      -2.62074069       0.00000000
Si      -2.06078274       3.02275611      -1.51163403       0.00000000
Si      -3.08425086      -1.86893541      -1.68993038       0.00000000
