10
Lattice="16.28999089631971 0.0 0.0 0.0 16.28999089631971 0.0 0.0 0.0 34.2284985734139" Properties=species:S:1:pos:R:3:initial_magmoms:R:1 pbc="T T T"
Si      -0.47226339      -1.79641233       1.44666830       0.00000000
Si       1.79188371       0.93996558       1.25043621       0.00000000
Si      -1.79048277       1.58079789       0.29371491       0.00000000
Si       0.48863484      -1.21858974      -2.10710755       0.00000000
Si      -2.45242692      -2.61908991       0.31117145       0.00000000
Si       1.74355128      -2.56077171       2.01520398       0.00000000
Si       2.76351705      -1.78883748      -1.67979873       0.00000000
Si       0.28116540       0.40011498      -3.85358344       0.00000000
Si      -2.02411395       2.99620341      -1.57642861       0.00000000
Si      -1.33327134       3.08183994       2.09906385       0.00000000
