10
Lattice="16.28999089631971 0.0 0.0 0.0 16.28999089631971 0.0 0.0 0.0 34.2284985734139" Properties=species:S:1:pos:R:3:initial_magmoms:R:1 pbc="T T T"
Si       1.35461124      -1.35988920      -1.36185003       0.00000000
Si      -1.35944937       1.35490446      -1.36212386       0.00000000
Si       1.36311462       1.35174420       1.36773734       0.00000000
Si      -1.37077092      -1.37445246       1.35952249       0.00000000
Si      -2.71285515       2.71270495       0.00243022       0.00000000
Si       2.71104349       2.71494281      -0.00328594       0.00000000
Si      -2.71342530      -2.71458189      -0.00585308       0.00000000
Si       2.71529865      -2.71709055      -0.00071880       0.00000000
Si      -0.00063531       2.71390895      -2.71877116       0.00000000
Si       2.71410485      -0.00065160      -2.71894230       0.00000000
