10
Lattice="16.28999089631971 0.0 0.0 0.0 16.28999089631971 0.0 0.0 0.0 34.2284985734139" Properties=species:S:1:pos:R:3:initial_magmoms:R:1 pbc="T T T"
Si      -1.85657130      -0.90797202      -1.21381169       0.00000000
Si       1.06771176       1.86820236      -1.06337736       0.00000000
Si       1.79134614      -1.66819374      -0.00729067       0.00000000
Si      -0.67165299      -0.17106129       2.46161231       0.00000000
Si       1.29117798      -1.80581166       2.32747075       0.00000000
Si      -0.37002735      -2.08533177      -2.63220724       0.00000000
Si       2.36385819       0.64086489      -2.62399240       0.00000000
Si       0.92991465      -3.49146828      -1.22555208       0.00000000
Si      -3.15643185      -2.30127201       0.27844899       0.00000000
Si       3.73217162      -0.71807949      -1.19895652       0.00000000
