10
Lattice="16.28999089631971 0.0 0.0 0.0 16.28999089631971 0.0 0.0 0.0 34.2284985734139" Properties=species:S:1:pos:R:3:initial_magmoms:R:1 pbc="T T T"
Si      -0.86143149      -1.82327454      -1.21826140       0.00000000
Si      -0.50016816      -0.13761792       2.33476142       0.00000000
Si      -1.79134614       1.66819374       0.00729067       0.00000000
Si       1.94082548       0.95011425      -1.19166584       0.00000000
Si      -2.16137349      -0.41713803      -2.62491657       0.00000000
Si       0.57251205       2.30905863      -2.61670172       0.00000000
Si       1.73579724       0.12974985       3.09874194       0.00000000
Si      -0.72363438       3.53639610      -1.05608669       0.00000000
Si      -2.46299913       1.49713245       2.46890298       0.00000000
Si      -3.64791744       0.76022172      -1.20652102       0.00000000
