10
Lattice="16.28999089631971 0.0 0.0 0.0 16.28999089631971 0.0 0.0 0.0 34.2284985734139" Properties=species:S:1:pos:R:3:initial_magmoms:R:1 pbc="T T T"
Si      -0.09878256      -2.16855738      -0.84944912       0.00000000
Si       2.30701328       0.05437602       0.40365691       0.00000000
Si      -0.96912468       0.26500572       2.15280262       0.00000000
Si      -0.56220048       2.02201484      -1.31656570       0.00000000
Si       3.15813320      -0.08374689      -1.88267116       0.00000000
Si      -2.33474796      -2.43592515      -1.61342964       0.00000000
Si      -3.28606767      -0.15749172       1.85347423       0.00000000
Si       0.06950943      -1.37033109       3.56072424       0.00000000
Si       2.95721234       2.08711620       1.41959354       0.00000000
Si       0.75433030      -3.81699135       0.62898324       0.00000000
