10
Lattice="16.28999089631971 0.0 0.0 0.0 16.28999089631971 0.0 0.0 0.0 34.2284985734139" Properties=species:S:1:pos:R:3:initial_magmoms:R:1 pbc="T T T"
Si      -1.85331330       1.40405139       0.23484186       0.00000000
Si       0.20746944      -1.61870472       1.74647589       0.00000000
Si       2.04752268       1.22178258       0.24096876       0.00000000
Si      -0.70307640      -1.05692778      -2.12624129       0.00000000
Si       2.87852445       1.07883783      -1.90978015       0.00000000
Si      -3.61538631      -0.04748535      -0.42563162       0.00000000
Si      -1.57999968       2.92369662      -1.58423271       0.00000000
Si       0.90748332      -2.67683796      -2.58613565       0.00000000
Si      -2.88207567      -1.89066627      -1.71142589       0.00000000
Si       3.55856909      -0.13740615       1.48538075       0.00000000
