10
Lattice="16.28999089631971 0.0 0.0 0.0 16.28999089631971 0.0 0.0 0.0 34.2284985734139" Properties=species:S:1:pos:R:3:initial_magmoms:R:1 pbc="T T T"
Si       1.35852410      -1.35480672       1.36007015       0.00000000
Si      -1.35841408       1.35985662       1.36054935       0.00000000
Si      -1.36077279      -1.35312885      -1.37305645       0.00000000
Si       1.36748360       1.36836000      -1.35541165       0.00000000
Si      -2.71642659      -2.71251306       0.00119800       0.00000000
Si       0.00006190      -2.71355562       2.71743625       0.00000000
Si       2.71575803      -2.71534752       0.00136914       0.00000000
Si       2.71523675       2.71671588       0.00780410       0.00000000
Si      -2.71733883       2.71520091       0.00174565       0.00000000
Si       2.71536707       0.00167787       2.71784699       0.00000000
