10
Lattice="16.28999089631971 0.0 0.0 0.0 16.28999089631971 0.0 0.0 0.0 34.2284985734139" Properties=species:S:1:pos:R:3:initial_magmoms:R:1 pbc="T T T"
Si       1.91510127      -1.34358291      -0.30052639       0.00000000
Si      -1.48568058      -0.60602058       1.74048590       0.00000000
Si       0.81549369       2.23326126       0.08409947       0.00000000
Si      -2.15598802      -0.44849628      -1.16661057       0.00000000
Si      -3.22012702       0.55811169       0.76511006       0.00000000
Si      -0.27974817       2.94319575       2.12165467       0.00000000
Si       0.95000022      -3.52641033      -0.05011055       0.00000000
Si       3.56164560       0.58736853      -1.02569176       0.00000000
Si       3.03194367       2.21278473       0.85581563       0.00000000
Si      -2.14569111       0.79537554      -3.14690146       0.00000000
