10
Lattice="16.28999089631971 0.0 0.0 0.0 16.28999089631971 0.0 0.0 0.0 34.2284985734139" Properties=species:S:1:pos:R:3:initial_magmoms:R:1 pbc="T T T"
Si      -0.74210724      -0.38372724      -2.11456937       0.00000000
Si       1.30448691       1.86922863       0.08228536       0.00000000
Si       0.54649692      -1.91013282       1.20087332       0.00000000
Si      -1.08051081       1.87561431       1.13180017       0.00000000
Si      -1.59323368      -2.81507490       1.48822172       0.00000000
Si      -1.56703936       0.81275697       3.16514526       0.00000000
Si       0.46382517       3.16548909      -1.73340059       0.00000000
Si       1.64480130      -1.21445208       3.16107207       0.00000000
Si      -1.67172704      -2.46804903      -2.34078564       0.00000000
Si       1.71737325      -3.41630622      -0.19626632       0.00000000
