10
Lattice="16.28999089631971 0.0 0.0 0.0 16.28999089631971 0.0 0.0 0.0 34.2284985734139" Properties=species:S:1:pos:R:3:initial_magmoms:R:1 pbc="T T T"
Si       1.34784574       1.36324494       1.38461200       0.00000000
Si      -1.36691601      -1.35575154       1.38649457       0.00000000
Si      -1.50024966       1.32721146      -1.40189055       0.00000000
Si       1.51647656      -1.30580640      -1.42834578       0.00000000
Si      -2.70916314      -2.69876430       0.02058845       0.00000000
Si       2.70448346       2.71268091      -0.01046708       0.00000000
Si       2.71790642      -2.70259245       0.02933726       0.00000000
Si      -2.73439635       2.71780731       0.02643811       0.00000000
Si       2.70818129       0.00122175       2.74516135       0.00000000
Si      -0.00799125      -2.71109583       2.74529826       0.00000000
