10
Lattice="16.28999089631971 0.0 0.0 0.0 16.28999089631971 0.0 0.0 0.0 34.2284985734139" Properties=species:S:1:pos:R:3:initial_magmoms:R:1 pbc="T T T"
Si      -0.87469481      -1.97086194       0.93132374       0.00000000
Si       1.07300601      -0.37761849      -2.14020653       0.00000000
Si      -0.63786753       2.04244739       1.20258474       0.00000000
Si       2.19076065       0.26075403       1.21394861       0.00000000
Si      -2.34524591      -0.08125452      -1.08709772       0.00000000
Si      -1.64457487       1.62745964      -2.65507189       0.00000000
Si      -2.52355625      -1.10956077       2.29481674       0.00000000
Si       3.28220694      -1.69316631       0.46126350       0.00000000
Si      -3.60825848       0.38725649       0.84797730       0.00000000
Si       3.36606786      -0.91215855      -1.71317154       0.00000000
