10
Lattice="10.86 0.0 0.0 0.0 10.86 0.0 0.0 0.0 10.86" Properties=species:S:1:pos:R:3:initial_magmoms:R:1 pbc="T T T"
Si       1.36118154       1.22028390      -1.27901478       0.00000000
Si      -1.35381846       1.22028390       1.43598522       0.00000000
Si      -1.35381846      -1.49471610      -1.27901478       0.00000000
Si       0.00368154       2.57778390      -2.63651478       0.00000000
Si      -2.71131846       2.57778390       0.07848522       0.00000000
Si       2.71868154       2.57778390       0.07848522       0.00000000
Si      -2.71131846      -0.13721610      -2.63651478       0.00000000
Si       2.71868154      -0.13721610      -2.63651478       0.00000000
Si       0.00368154       2.57778390       2.79348522       0.00000000
Si       0.00368154      -2.85221610      -2.63651478       0.00000000
