10
Lattice="16.28999089631971 0.0 0.0 0.0 16.28999089631971 0.0 0.0 0.0 34.450931932916035" Properties=species:S:1:pos:R:3:initial_magmoms:R:1 pbc="T T T"
Si      -1.32096099       1.36689527      -1.36334127       0.00000000
Si      -1.35120011      -1.35531101       1.36494324       0.00000000
Si       1.36238157       1.35969346       1.35874207       0.00000000
Si       1.34913780      -1.22883545      -1.53207859       0.00000000
Si       0.31534182       2.49708569      -2.63528934       0.00000000
Si       2.70257616      -2.68291343      -0.01059711       0.00000000
Si      -2.69221482      -2.69990390       0.00093362       0.00000000
Si       2.33456877       0.76049839      -2.92859065       0.00000000
Si      -2.70489653       2.70800861       0.00873676       0.00000000
Si      -2.70660183       0.00262392       2.72038146       0.00000000
