10
Lattice="16.28999089631971 0.0 0.0 0.0 16.28999089631971 0.0 0.0 0.0 34.450931932916035" Properties=species:S:1:pos:R:3:initial_magmoms:R:1 pbc="T T T"
Si      -1.34838846      -1.33545748       1.35914859       0.00000000
Si      -1.39242033       1.30683495      -1.34561281       0.00000000
Si       1.36643778       1.38001126       1.34995019       0.00000000
Si       1.31067711      -1.32780118      -1.45761285       0.00000000
Si       2.23104582       0.63605022      -2.47796907       0.00000000
Si       0.34169904       2.26581259      -2.66325421       0.00000000
Si      -2.72508894      -2.66426536      -0.01515153       0.00000000
Si       2.72225448      -2.68293370      -0.01887912       0.00000000
Si       0.00806355      -2.69321269       2.71396670       0.00000000
Si      -2.70506853       0.02056235       2.71400115       0.00000000
