10
Lattice="16.28999089631971 0.0 0.0 0.0 16.28999089631971 0.0 0.0 0.0 34.450931932916035" Properties=species:S:1:pos:R:3:initial_magmoms:R:1 pbc="T T T"
Si       1.35668007      -1.35601983      -1.35485256       0.00000000
Si       1.35638685       1.35818969       1.35778089       0.00000000
Si      -1.35865116      -1.35655740       1.35791869       0.00000000
Si      -1.36021500       1.35777919      -1.35981349       0.00000000
Si      -0.02002041      -2.68482771      -2.72915268       0.00000000
Si       2.70506853      -0.02056235      -2.71400115       0.00000000
Si       2.71313208      -2.71377504      -0.00003445       0.00000000
Si       2.71423980       0.00088194       2.71535507       0.00000000
Si      -0.00110772      -2.71432890       2.71528617       0.00000000
Si       2.71311579       2.71678058       0.00093018       0.00000000
