10
Lattice="16.28999089631971 0.0 0.0 0.0 16.28999089631971 0.0 0.0 0.0 34.450931932916035" Properties=species:S:1:pos:R:3:initial_magmoms:R:1 pbc="T T T"
Si       0.21701538      -2.34256716       0.31980818       0.00000000
Si      -2.30871654       0.56433447       0.01567518       0.00000000
Si       1.55606967       1.41371136       1.24550524       0.00000000
Si       0.54196830       0.75163689      -2.28585506       0.00000000
Si      -0.26132418       2.94366816      -1.64051984       0.00000000
Si      -1.90461051       2.89953855       0.09897758       0.00000000
Si       2.95191090       0.36714402      -1.89059930       0.00000000
Si       3.57189201       0.46850040       0.48345020       0.00000000
Si      -0.46351566      -3.27015234      -1.72564814       0.00000000
Si       1.35244467       0.82676637       3.51978478       0.00000000
