10
Lattice="16.28999089631971 0.0 0.0 0.0 16.28999089631971 0.0 0.0 0.0 34.450931932916035" Properties=species:S:1:pos:R:3:initial_magmoms:R:1 pbc="T T T"
Si       0.71376264      -2.21450495      -0.51111431       0.00000000
Si      -2.07781298       0.32395923       1.13050796       0.00000000
Si       1.78281018       0.66692889       1.48524941       0.00000000
Si       0.53639712       1.18268658      -2.23397193       0.00000000
Si       2.86715403       0.69991614      -1.86610467       0.00000000
Si       2.79562464      -1.61059719      -1.44759452       0.00000000
Si       0.98875413       2.48047830       2.71818005       0.00000000
Si      -1.75654160      -0.11518659       3.43944516       0.00000000
Si      -2.56431383       2.64836304       1.25194757       0.00000000
Si       3.54768507       1.62750132       0.17935165       0.00000000
