10
Lattice="16.28999089631971 0.0 0.0 0.0 16.28999089631971 0.0 0.0 0.0 34.450931932916035" Properties=species:S:1:pos:R:3:initial_magmoms:R:1 pbc="T T T"
Si      -1.34485353      -1.35013149      -1.38551390       0.00000000
Si       1.36759437       1.36611198      -1.38379136       0.00000000
Si       1.40682069      -1.35428544       1.40756251       0.00000000
Si      -1.28260944       1.40900355       1.54636539       0.00000000
Si       2.24572311       0.40519746       2.70615667       0.00000000
Si       0.73643832       2.32476219       2.77674667       0.00000000
Si      -2.67895729       2.72181465      -0.00654568       0.00000000
Si      -2.69400925      -2.71368594       0.01198893       0.00000000
Si       2.73802320      -2.69443116      -0.02652723       0.00000000
Si      -2.70259571       0.00601101      -2.74622312       0.00000000
