10
Lattice="16.28999089631971 0.0 0.0 0.0 16.28999089631971 0.0 0.0 0.0 34.450931932916035" Properties=species:S:1:pos:R:3:initial_magmoms:R:1 pbc="T T T"
Si       1.50928479      -1.91956473      -0.07059000       0.00000000
Si       0.72645255       1.89069885      -1.39205958       0.00000000
Si       0.89697627       0.90886797       2.14805126       0.00000000
Si      -2.01904776      -0.91575864      -1.23038127       0.00000000
Si       1.99394487       0.41863671      -2.80168915       0.00000000
Si       3.27205827      -0.98526807      -1.40270493       0.00000000
Si      -0.73643832      -2.32476219      -2.77674667       0.00000000
Si      -0.22257027      -2.21110686       3.17331156       0.00000000
Si       0.67038237      -3.67904763      -1.36918415       0.00000000
Si       1.76997366       3.57418890      -0.01415934       0.00000000
