10
Lattice="16.28999089631971 0.0 0.0 0.0 16.28999089631971 0.0 0.0 0.0 34.450931932916035" Properties=species:S:1:pos:R:3:initial_magmoms:R:1 pbc="T T T"
Si       0.25541091      -0.82783257      -2.18615401       0.00000000
Si      -2.19636278       0.47856909       0.75213317       0.00000000
Si       0.41427099      -1.65503877       1.69023257       0.00000000
Si       1.29855735       2.00880119      -0.22138181       0.00000000
Si      -0.01710450      -0.23402949       3.58896229       0.00000000
Si       2.75162535      -1.88221911       1.40494424       0.00000000
Si       0.68142699       3.15763715       1.74707664       0.00000000
Si       1.60533063       1.38182352       3.01800668       0.00000000
Si      -2.76165089       2.52574805      -0.20456975       0.00000000
Si      -1.00337929      -2.73407208      -2.41787111       0.00000000
