10
Lattice="16.28999089631971 0.0 0.0 0.0 16.28999089631971 0.0 0.0 0.0 34.450931932916035" Properties=species:S:1:pos:R:3:initial_magmoms:R:1 pbc="T T T"
Si       1.34838846       1.33545748      -1.35914859       0.00000000
Si      -1.35668007       1.35601983       1.35485256       0.00000000
Si       1.35645201      -1.35775521       1.35481811       0.00000000
Si      -1.37670048      -1.32880788      -1.37430012       0.00000000
Si      -0.04403187       2.64229243      -2.70476140       0.00000000
Si      -0.04230513      -2.66149278      -2.74888274       0.00000000
Si      -0.00029322       2.71420952       2.71263345       0.00000000
Si       2.71458189      -0.00061902       2.71266790       0.00000000
Si      -2.71533123      -0.00053757       2.71277125       0.00000000
Si       0.00011403      -2.71596654       2.71325356       0.00000000
