10
Lattice="16.28999089631971 0.0 0.0 0.0 16.28999089631971 0.0 0.0 0.0 34.450931932916035" Properties=species:S:1:pos:R:3:initial_magmoms:R:1 pbc="T T T"
Si      -1.35356868      -1.33573113       1.36542900       0.00000000
Si      -1.35531171       1.35612621      -1.35647175       0.00000000
Si       1.35935163      -1.35534429      -1.35726412       0.00000000
Si       1.35360126       1.35509994       1.38365355       0.00000000
Si      -2.62106100       0.13633101       2.77505857       0.00000000
Si      -2.71428867      -0.00021177      -2.71356362       0.00000000
Si       0.00071676      -2.71469592      -2.71359807       0.00000000
Si       0.00105885       2.71499907      -2.71349472       0.00000000
Si       2.71682991       2.71239977       0.00365180       0.00000000
Si      -2.71635750      -2.71301805       0.00658013       0.00000000
