10
Lattice="16.28999089631971 0.0 0.0 0.0 16.28999089631971 0.0 0.0 0.0 34.450931932916035" Properties=species:S:1:pos:R:3:initial_magmoms:R:1 pbc="T T T"
Si      -1.03089410       2.01394899      -0.58539056       0.00000000
Si      -1.05557345      -1.22852827      -1.82131844       0.00000000
Si       2.44160352       0.24074991       0.04147895       0.00000000
Si      -0.52235288       0.14459004       2.55843099       0.00000000
Si      -0.40066658       1.83708846      -2.84850800       0.00000000
Si       0.52311556      -0.46865841      -3.35100957       0.00000000
Si      -1.13787053      -3.26590784      -0.75154750       0.00000000
Si      -3.22896896       1.65302775       0.22086505       0.00000000
Si       2.63781657       2.18036763       1.35102850       0.00000000
Si       3.06414216      -1.69672472       1.25198202       0.00000000
