10
Lattice="16.28999089631971 0.0 0.0 0.0 16.28999089631971 0.0 0.0 0.0 34.450931932916035" Properties=species:S:1:pos:R:3:initial_magmoms:R:1 pbc="T T T"
Si      -1.49721390       0.28628046       1.83565003       0.00000000
Si      -0.16345386      -1.95870797      -1.36780611       0.00000000
Si       2.13281712       0.66490893       0.88831778       0.00000000
Si      -0.45758610       1.52762733      -1.81098315       0.00000000
Si      -2.29889367      -0.72896121      -2.09837299       0.00000000
Si       3.20901597      -1.39724217       0.47480301       0.00000000
Si      -0.26029791       1.89969093       3.03037457       0.00000000
Si       1.95756930       1.69494192      -2.49614367       0.00000000
Si       2.30532822       2.89036728      -0.50615337       0.00000000
Si      -1.65192003      -1.81834519       2.81829451       0.00000000
