10
Lattice="16.28999089631971 0.0 0.0 0.0 16.28999089631971 0.0 0.0 0.0 34.450931932916035" Properties=species:S:1:pos:R:3:initial_magmoms:R:1 pbc="T T T"
Si       0.80169606      -2.16474782       0.36369869       0.00000000
Si       0.90862362       2.09814060       0.51517952       0.00000000
Si       0.86141520      -0.10285343      -2.20696238       0.00000000
Si      -2.19167289       0.15645242       1.00489980       0.00000000
Si      -1.14341139      -0.88484511       2.80372176       0.00000000
Si      -1.10493441      -3.17876774      -0.65790981       0.00000000
Si      -0.79803081       3.34947324      -0.57533088       0.00000000
Si       3.08201913      -0.78341542      -1.52700396       0.00000000
Si      -1.12080087      -0.90941206      -3.30260598       0.00000000
Si      -2.67639813       2.44769142       0.55503927       0.00000000
