10
Lattice="16.28999089631971 0.0 0.0 0.0 16.28999089631971 0.0 0.0 0.0 34.450931932916035" Properties=species:S:1:pos:R:3:initial_magmoms:R:1 pbc="T T T"
Si       1.04826150      -1.04129753       1.79882197       0.00000000
Si      -0.48472524       2.29123900      -0.44986052       0.00000000
Si      -2.19074436      -0.93926674       0.22138181       0.00000000
Si       2.19167289      -0.15645242      -1.00489980       0.00000000
Si       3.10029651       1.94168818      -0.48972027       0.00000000
Si       1.39364208       3.19302082      -1.58023068       0.00000000
Si      -3.26018286       0.56495512       1.93373189       0.00000000
Si       2.99336895      -2.32120024      -0.64120110       0.00000000
Si       1.08673848      -3.33522016      -1.66280961       0.00000000
Si       1.79155791      -3.23195785       1.25398017       0.00000000
