10
Lattice="16.28999089631971 0.0 0.0 0.0 16.28999089631971 0.0 0.0 0.0 34.450931932916035" Properties=species:S:1:pos:R:3:initial_magmoms:R:1 pbc="T T T"
Si      -1.35853713       1.35542574      -1.36163939       0.00000000
Si       1.35935163      -1.35902583      -1.36022691       0.00000000
Si      -1.35153243      -1.36718712       1.37814140       0.00000000
Si       1.37373570       1.34454402       1.37889932       0.00000000
Si      -2.58613524       0.15247440       2.75201088       0.00000000
Si      -2.71454931       2.71207323      -0.00409966       0.00000000
Si       0.00123804       2.71261080      -2.71780109       0.00000000
Si      -2.71394658      -0.00179190      -2.71821450       0.00000000
Si       2.72038113       2.71223613      -0.00006890       0.00000000
Si      -2.71669959      -2.71705797      -0.00110243       0.00000000
