10
Lattice="16.28999089631971 0.0 0.0 0.0 16.28999089631971 0.0 0.0 0.0 34.450931932916035" Properties=species:S:1:pos:R:3:initial_magmoms:R:1 pbc="T T T"
Si       1.22137696       1.29973088       1.54544008       0.00000000
Si       1.32735481      -1.12721915      -1.60351952       0.00000000
Si      -1.43001832      -1.40817278       1.45711473       0.00000000
Si      -0.65718814       1.76269920      -1.67665889       0.00000000
Si       1.08682808       3.31213884      -1.01313357       0.00000000
Si      -2.67744136       2.59932102      -0.07820366       0.00000000
Si       2.85767977       2.42992131       0.27349202       0.00000000
Si       2.74000081      -2.57720834      -0.33648244       0.00000000
Si       2.54233795      -0.06716439       2.90878135       0.00000000
Si      -0.16255858       2.64084423       2.91751811       0.00000000
