10
Lattice="16.28999089631971 0.0 0.0 0.0 16.28999089631971 0.0 0.0 0.0 34.450931932916035" Properties=species:S:1:pos:R:3:initial_magmoms:R:1 pbc="T T T"
Si       2.05578171      -1.02431520       0.20308836       0.00000000
Si      -1.23691599      -1.61341047      -1.19472454       0.00000000
Si      -0.73876779       0.58775949       2.17754127       0.00000000
Si      -0.07727976       1.86786027      -1.52035493       0.00000000
Si       2.39311503      -1.23478200      -2.14205679       0.00000000
Si       3.18344067       0.70876161       1.31792114       0.00000000
Si      -2.29672710       2.22612624       1.51597966       0.00000000
Si       0.26029791      -1.89969093      -3.03037457       0.00000000
Si      -2.09310210       2.81307123      -0.75829989       0.00000000
Si      -1.82117313      -1.29930669       3.19983880       0.00000000
