10
Lattice="16.28999089631971 0.0 0.0 0.0 16.28999089631971 0.0 0.0 0.0 34.450931932916035" Properties=species:S:1:pos:R:3:initial_magmoms:R:1 pbc="T T T"
Si       1.77085169      -0.88221753       1.28662559       0.00000000
Si       1.41615323       0.48633795      -1.87092781       0.00000000
Si      -1.14413336       1.71145998       1.24093946       0.00000000
Si      -1.74401622      -1.54943964      -0.66352532       0.00000000
Si       0.13454888      -2.01240796       2.55857365       0.00000000
Si      -2.65570236       2.39370147      -0.36176944       0.00000000
Si       0.43319834       2.53635300      -2.52398004       0.00000000
Si      -1.08682808      -3.31213884       1.01313357       0.00000000
Si       1.21994018      -1.45327977      -3.18047736       0.00000000
Si      -2.65208598       0.55702026       2.55332677       0.00000000
