10
Lattice="16.28999089631971 0.0 0.0 0.0 16.28999089631971 0.0 0.0 0.0 34.450931932916035" Properties=species:S:1:pos:R:3:initial_magmoms:R:1 pbc="T T T"
Si      -1.35431802       1.36446669      -1.31251578       0.00000000
Si       1.34257293       1.35332433       1.36594576       0.00000000
Si      -1.36871838      -1.36265850       1.36132934       0.00000000
Si       1.37670048      -1.31406543      -1.48789180       0.00000000
Si      -0.53292735      -2.17715850      -2.83898028       0.00000000
Si      -2.38482342      -0.29421369      -2.72980522       0.00000000
Si       0.09684405       2.54290158      -2.69053657       0.00000000
Si       2.70265761       2.68977222      -0.00614260       0.00000000
Si       2.69778690      -0.00184077       2.72024711       0.00000000
Si       2.69602758      -2.72551248      -0.01642966       0.00000000
