10
Lattice="16.28999089631971 0.0 0.0 0.0 16.28999089631971 0.0 0.0 0.0 34.450931932916035" Properties=species:S:1:pos:R:3:initial_magmoms:R:1 pbc="T T T"
Si       0.93854835      -1.28267460      -1.67958722       0.00000000
Si       0.64255905       2.22720138       0.07427625       0.00000000
Si      -2.32645635      -0.13453911      -0.07059000       0.00000000
Si       1.13911083      -0.88518231       1.83606344       0.00000000
Si       3.02041035       1.90250910       0.54087993       0.00000000
Si      -0.79798194      -1.38556224      -3.24028421       0.00000000
Si      -2.79526626      -0.87146613       2.13017121       0.00000000
Si       1.35922131      -3.19627719       1.39839856       0.00000000
Si      -2.75017554      -1.75251078      -1.86710375       0.00000000
Si      -0.59994441       3.17120688       1.95044060       0.00000000
