10
Lattice="16.28999089631971 0.0 0.0 0.0 16.28999089631971 0.0 0.0 0.0 34.450931932916035" Properties=species:S:1:pos:R:3:initial_magmoms:R:1 pbc="T T T"
Si       1.35902583       1.34664543       1.37368689       0.00000000
Si      -1.35586557      -1.36971207       1.37396250       0.00000000
Si       1.38113136      -1.37883447      -1.37938508       0.00000000
Si      -1.41157737       1.35513252      -1.43873373       0.00000000
Si      -2.72225448       2.68293370       0.01887912       0.00000000
Si       2.72137482       2.69726562      -0.00311092       0.00000000
Si       0.00187335       2.70365243       2.73329368       0.00000000
Si      -2.72732067      -2.71254564       0.01138259       0.00000000
Si      -2.71419093      -0.01027899       2.73284582       0.00000000
Si       2.71720458      -0.01005093       2.73325923       0.00000000
