10
Lattice="16.28999089631971 0.0 0.0 0.0 16.28999089631971 0.0 0.0 0.0 34.450931932916035" Properties=species:S:1:pos:R:3:initial_magmoms:R:1 pbc="T T T"
Si      -1.35360126      -1.35509994      -1.38365355       0.00000000
Si       1.36322865       1.35729983      -1.38000175       0.00000000
Si       1.34180730      -1.35079938       1.46158160       0.00000000
Si      -1.19733129       1.48933119       1.49151948       0.00000000
Si       2.28346704       0.50249763       2.79317977       0.00000000
Si      -2.70716994      -2.69083107      -0.01822455       0.00000000
Si      -2.69312796       2.72549197       0.00372070       0.00000000
Si       0.50521806       2.27402603       3.05807313       0.00000000
Si       2.73230541      -2.70844056       0.00754476       0.00000000
Si       2.70629028       2.74097073      -0.02552815       0.00000000
