10
Lattice="16.28999089631971 0.0 0.0 0.0 16.28999089631971 0.0 0.0 0.0 34.450931932916035" Properties=species:S:1:pos:R:3:initial_magmoms:R:1 pbc="T T T"
Si      -1.16229150      -1.64142927       1.24691773       0.00000000
Si      -1.34180730       1.35079938      -1.46158160       0.00000000
Si       1.39049811      -1.35764118      -1.45403685       0.00000000
Si       0.94165974       1.85329701       1.33159817       0.00000000
Si      -1.48372578      -0.57085047       3.25954230       0.00000000
Si       2.62700685       2.67846696      -0.14807019       0.00000000
Si      -2.53913859       2.84013057       0.02993788       0.00000000
Si       0.79992045      -3.47268591       1.56417654       0.00000000
Si       2.76011244      -2.75307516       0.04871364       0.00000000
Si      -2.77086384      -2.74393647      -0.08082193       0.00000000
