10
Lattice="16.28999089631971 0.0 0.0 0.0 16.28999089631971 0.0 0.0 0.0 34.450931932916035" Properties=species:S:1:pos:R:3:initial_magmoms:R:1 pbc="T T T"
Si      -1.22777730       1.13979501      -1.68392804       0.00000000
Si       0.89775819      -1.65030732      -1.48673080       0.00000000
Si       1.93192884       1.11335634       0.91077980       0.00000000
Si      -1.02550437      -0.24899265       2.18512048       0.00000000
Si       2.60486874      -0.08161290      -2.27613989       0.00000000
Si      -0.25019811      -2.49160437       2.71580293       0.00000000
Si      -0.18003708       1.83299967       3.27538973       0.00000000
Si      -3.49889652       0.19917783      -1.42761297       0.00000000
Si       3.36500901       1.71460395      -0.81628084       0.00000000
Si       2.71881729      -0.12986388       2.86066918       0.00000000
