10
Lattice="16.28999089631971 0.0 0.0 0.0 16.28999089631971 0.0 0.0 0.0 34.450931932916035" Properties=species:S:1:pos:R:3:initial_magmoms:R:1 pbc="T T T"
Si       1.43308017       0.60124761      -1.72706063       0.00000000
Si      -0.47148147       1.97014096       1.18135757       0.00000000
Si      -1.93192884      -1.11335634      -0.91077980       0.00000000
Si       0.78688845      -1.24322022       1.94988939       0.00000000
Si      -2.11196592       0.71964333       2.36460994       0.00000000
Si       0.67293990      -1.19496924      -3.18691969       0.00000000
Si      -2.95743321      -1.36234899       1.27434068       0.00000000
Si      -1.03417065      -2.76366366      -2.39751059       0.00000000
Si      -0.45561501      -0.29921472       3.82605374       0.00000000
Si       3.69703179       0.21305691      -1.17774022       0.00000000
