10
Lattice="16.28999089631971 0.0 0.0 0.0 16.28999089631971 0.0 0.0 0.0 34.450931932916035" Properties=species:S:1:pos:R:3:initial_magmoms:R:1 pbc="T T T"
Si       0.24361695      -2.28467250       0.25183645       0.00000000
Si       1.24905204       0.83220723      -1.79289640       0.00000000
Si      -2.00596689       0.92387106       1.00052452       0.00000000
Si       1.95387147       0.93546954       1.12389338       0.00000000
Si      -0.62499843      -1.99156653       2.41187664       0.00000000
Si      -1.67158206      -0.01853802       3.24510735       0.00000000
Si      -3.65080077      -0.25992324      -0.28053410       0.00000000
Si      -0.94626981      -3.21046578      -1.61316579       0.00000000
Si       3.15568251       1.84622715      -0.77128790       0.00000000
Si       1.21057506       3.12612986       1.66873517       0.00000000
