10
Lattice="16.28999089631971 0.0 0.0 0.0 16.28999089631971 0.0 0.0 0.0 34.450931932916035" Properties=species:S:1:pos:R:3:initial_magmoms:R:1 pbc="T T T"
Si       1.35731538       1.35615261       1.35643730       0.00000000
Si      -1.35624024      -1.35733363       1.35678181       0.00000000
Si       1.35819504      -1.35736621      -1.35688516       0.00000000
Si      -1.35760860       1.35776532      -1.35719522       0.00000000
Si       0.00053757      -2.71438837      -2.71487276       0.00000000
Si      -2.71474479       2.71463599       0.00003445       0.00000000
Si       0.00140094       2.71318618       2.71635415       0.00000000
Si       2.71494478       2.71463599       0.00044786       0.00000000
Si      -2.71479366      -0.00068501      -2.71483831       0.00000000
Si      -2.71510317      -2.71486078      -0.00013780       0.00000000
