10
Lattice="16.28999089631971 0.0 0.0 0.0 16.28999089631971 0.0 0.0 0.0 34.450931932916035" Properties=species:S:1:pos:R:3:initial_magmoms:R:1 pbc="T T T"
Si      -1.37231847      -1.33207403       1.35536932       0.00000000
Si       1.35591444      -1.35703356      -1.35991685       0.00000000
Si      -1.35819504       1.35979146      -1.35874551       0.00000000
Si       1.35884664       1.36041048       1.39646931       0.00000000
Si       2.71281470      -2.70947402      -0.00058567       0.00000000
Si       2.71354384       0.00144981      -2.71590629       0.00000000
Si      -0.00140094      -2.71318618      -2.71635415       0.00000000
Si      -2.71538010      -2.71574493       0.00089572       0.00000000
Si       2.71547546       2.71601541       0.00540880       0.00000000
Si      -2.71614573       0.00144981      -2.71631970       0.00000000
