10
Lattice="16.28999089631971 0.0 0.0 0.0 16.28999089631971 0.0 0.0 0.0 34.450931932916035" Properties=species:S:1:pos:R:3:initial_magmoms:R:1 pbc="T T T"
Si      -2.15748018       0.91655685       0.45771534       0.00000000
Si       1.20329343       1.72556712       1.13819053       0.00000000
Si       1.10467377       0.32553936      -2.11267013       0.00000000
Si       0.30892356      -2.37678335       0.58811219       0.00000000
Si      -2.07298395      -1.14056227      -2.56191053       0.00000000
Si       1.74542463      -1.89011960      -2.50902832       0.00000000
Si      -3.49645302      -0.67632659      -0.67289598       0.00000000
Si       3.37973517       1.24475148       0.49464676       0.00000000
Si      -2.11809096       2.90633148      -0.87836145       0.00000000
Si      -0.70455879       0.63371358      -3.63702137       0.00000000
