10
Lattice="16.28999089631971 0.0 0.0 0.0 16.28999089631971 0.0 0.0 0.0 34.450931932916035" Properties=species:S:1:pos:R:3:initial_magmoms:R:1 pbc="T T T"
Si      -1.37670048       1.31406543       1.48789180       0.00000000
Si       1.31932710      -1.41144705       1.47146214       0.00000000
Si      -1.90962783      -0.86309307      -1.35108849       0.00000000
Si       1.71284463       1.00892115      -1.55452135       0.00000000
Si       2.77941609       2.57579109       0.05148695       0.00000000
Si      -2.73101850       2.67853212       0.17537601       0.00000000
Si      -0.80215218      -0.81445113      -3.66174823       0.00000000
Si      -0.03412755       2.66738976       2.85383756       0.00000000
Si      -2.77490376      -2.75196744      -0.03432004       0.00000000
Si       2.67962355      -0.04561200       2.84811870       0.00000000
