10
Lattice="16.28999089631971 0.0 0.0 0.0 16.28999089631971 0.0 0.0 0.0 34.450931932916035" Properties=species:S:1:pos:R:3:initial_magmoms:R:1 pbc="T T T"
Si       1.35716877       1.35685926      -1.35747083       0.00000000
Si      -1.35795069      -1.35834165      -1.35757418       0.00000000
Si       1.35819504      -1.35979146       1.35874551       0.00000000
Si      -1.35935163       1.35902583       1.36022691       0.00000000
Si      -0.01412343      -2.69186548       2.71411484       0.00000000
Si       2.71420722      -0.00061902      -2.71501056       0.00000000
Si      -0.00063531       2.71458189      -2.71490721       0.00000000
Si      -0.00081450      -2.71521231      -2.71480386       0.00000000
Si      -2.71534752      -0.00032580      -2.71483831       0.00000000
Si       2.71420722       2.71608057      -0.00068902       0.00000000
