10
Lattice="16.28999089631971 0.0 0.0 0.0 16.28999089631971 0.0 0.0 0.0 34.450931932916035" Properties=species:S:1:pos:R:3:initial_magmoms:R:1 pbc="T T T"
Si       1.80164142      -0.20326662       1.42347885       0.00000000
Si      -1.65605769      -1.08717831       1.18848891       0.00000000
Si      -0.11774412      -0.34360497      -2.31892798       0.00000000
Si      -0.22011048       2.31109488       0.43766488       0.00000000
Si       3.29959165       1.33978734       0.46501894       0.00000000
Si      -0.42067296       1.91360259      -3.07798578       0.00000000
Si      -1.35922131       3.19627719      -1.39839856       0.00000000
Si       0.96829389       1.03151538       3.48202654       0.00000000
Si       1.93372074       3.23335323       0.59762065       0.00000000
Si      -1.65226212      -3.39426585       0.63462097       0.00000000
