10
Lattice="16.28999089631971 0.0 0.0 0.0 16.28999089631971 0.0 0.0 0.0 34.450931932916035" Properties=species:S:1:pos:R:3:initial_magmoms:R:1 pbc="T T T"
Si      -0.93677274      -1.89770355       1.08898423       0.00000000
Si       0.18640647      -1.08160713      -2.12078475       0.00000000
Si       1.85270798       1.12296744       1.08838823       0.00000000
Si      -1.85670162       1.63198107      -0.13404796       0.00000000
Si       0.33853057       2.27998098       2.52780754       0.00000000
Si      -2.39023170      -0.46965699       2.51924648       0.00000000
Si      -0.65534670       0.75497634      -3.40776893       0.00000000
Si      -2.60926704       1.38132684      -2.32456212       0.00000000
Si      -0.94161087       3.63887649       1.07520730       0.00000000
Si       3.03454097      -0.43917840       2.51329335       0.00000000
