10
Lattice="16.28999089631971 0.0 0.0 0.0 16.28999089631971 0.0 0.0 0.0 34.450931932916035" Properties=species:S:1:pos:R:3:initial_magmoms:R:1 pbc="T T T"
Si      -1.35521397       1.35516510      -1.35430134       0.00000000
Si      -1.35498591      -1.35852084       1.35774644       0.00000000
Si       1.35944937       1.35610992       1.35764308       0.00000000
Si       1.35853713      -1.35783666      -1.36002020       0.00000000
Si      -2.69778690       0.00184077      -2.72024711       0.00000000
Si       0.00487071       2.69161299      -2.72638971       0.00000000
Si      -2.71081890       2.71277370       0.00113688       0.00000000
Si      -2.71107954      -2.71643895       0.00041341       0.00000000
Si      -2.71246419      -0.00146610       2.71507946       0.00000000
Si       0.00309510       2.71319724       2.71549287       0.00000000
