10
Lattice="16.28999089631971 0.0 0.0 0.0 16.28999089631971 0.0 0.0 0.0 34.450931932916035" Properties=species:S:1:pos:R:3:initial_magmoms:R:1 pbc="T T T"
Si       0.34072164       0.84782934       2.11587407       0.00000000
Si       1.36587091      -1.89356589      -0.13260171       0.00000000
Si      -2.15383122      -0.92225835      -0.15995577       0.00000000
Si      -0.27253170       1.86543306      -1.45513928       0.00000000
Si      -2.57569335      -0.41386374       2.14477842       0.00000000
Si       0.21177000       3.49210359       0.15509818       0.00000000
Si      -0.13207932      -3.43661985       0.82585820       0.00000000
Si       1.65166495      -2.07342378      -2.42462349       0.00000000
Si       1.74290035       2.66001039       1.84129999       0.00000000
Si       1.18247481      -0.98875413       3.40285825       0.00000000
