10
Lattice="16.28999089631971 0.0 0.0 0.0 16.28999089631971 0.0 0.0 0.0 34.450931932916035" Properties=species:S:1:pos:R:3:initial_magmoms:R:1 pbc="T T T"
Si       0.40410603       2.33520408       0.08330240       0.00000000
Si       2.30871654      -0.56433447      -0.01567518       0.00000000
Si      -1.52810788      -0.67823415       1.71410708       0.00000000
Si      -0.96514015      -1.06860771      -2.08386914       0.00000000
Si      -2.00256065       2.57395032      -0.10032117       0.00000000
Si      -0.03319902      -2.05392465       2.84296139       0.00000000
Si       2.04739236       2.37933369      -1.65619503       0.00000000
Si       2.85068484       0.18730242      -2.30153024       0.00000000
Si      -1.62880778       1.18669392       3.13424419       0.00000000
Si       2.52573192      -2.90690163       0.30413300       0.00000000
