10
Lattice="16.28999089631971 0.0 0.0 0.0 16.28999089631971 0.0 0.0 0.0 34.450931932916035" Properties=species:S:1:pos:R:3:initial_magmoms:R:1 pbc="T T T"
Si      -1.35591444       1.35379674       1.35757418       0.00000000
Si       1.35867761       1.35573525      -1.35688516       0.00000000
Si      -1.35583299      -1.35956340      -1.35650620       0.00000000
Si       1.35570704      -1.35899325       1.36250067       0.00000000
Si      -2.71272483       2.71381626      -0.00017225       0.00000000
Si       0.00171045       2.71378368      -2.71383923       0.00000000
Si      -2.71394658      -0.00193851      -2.71421819       0.00000000
Si       2.71641193       2.71404432       0.00034451       0.00000000
Si       2.71631745      -0.00131949      -2.71439044       0.00000000
Si       0.00052128      -2.71665072      -2.71435599       0.00000000
