10
Lattice="16.28999089631971 0.0 0.0 0.0 16.28999089631971 0.0 0.0 0.0 34.450931932916035" Properties=species:S:1:pos:R:3:initial_magmoms:R:1 pbc="T T T"
Si      -0.83797389       0.62571519       2.08714198       0.00000000
Si       2.29583345      -0.03174921      -0.57405620       0.00000000
Si      -0.44686728      -2.30997087       0.41599524       0.00000000
Si      -1.34570061       1.22065093      -1.78989917       0.00000000
Si      -3.06923148      -0.31051998       1.82827753       0.00000000
Si       0.38633364      -0.84194865       3.49787398       0.00000000
Si       3.12283277      -2.03030415       0.62611159       0.00000000
Si       1.99867779       0.24777090      -3.23211934       0.00000000
Si       3.26664089       1.66126790       1.14025758       0.00000000
Si      -1.07857719      -2.48297067       2.72314099       0.00000000
