10
Lattice="16.28999089631971 0.0 0.0 0.0 16.28999089631971 0.0 0.0 0.0 34.450931932916035" Properties=species:S:1:pos:R:3:initial_magmoms:R:1 pbc="T T T"
Si       0.24886233      -1.87602156       1.25880331       0.00000000
Si       1.46491083       1.64102202       0.77473299       0.00000000
Si      -1.95603804       0.82580526       1.00128245       0.00000000
Si       0.63170991       0.17299980      -2.30714575       0.00000000
Si      -1.99065429       2.17245069      -0.89486346       0.00000000
Si       0.24060330       3.10868586      -0.63599901       0.00000000
Si       2.51164989      -2.17803816       0.92635163       0.00000000
Si       3.63318543       0.98373681       0.15437471       0.00000000
Si      -1.19589777       2.62202211       2.46114150       0.00000000
Si       1.07857719       2.48297067      -2.72314099       0.00000000
