10
Lattice="16.28999089631971 0.0 0.0 0.0 16.28999089631971 0.0 0.0 0.0 34.450931932916035" Properties=species:S:1:pos:R:3:initial_magmoms:R:1 pbc="T T T"
Si       1.36236528       1.34829072       1.37325281       0.00000000
Si      -1.35489469      -1.36573731       1.37297720       0.00000000
Si       1.33209846      -1.44127404      -1.33271782       0.00000000
Si      -1.18183298       1.56214584      -1.42490512       0.00000000
Si      -2.69601039       2.71915938       0.01451419       0.00000000
Si       2.71397916      -2.70329292       0.04158574       0.00000000
Si       2.80350900      -0.15731253      -2.61230676       0.00000000
Si       2.69878059       2.73614985       0.00298345       0.00000000
Si      -2.69886232      -2.73742047       0.02595535       0.00000000
Si       0.00179190       2.70795186       2.73279070       0.00000000
