10
Lattice="16.28999089631971 0.0 0.0 0.0 16.28999089631971 0.0 0.0 0.0 34.450931932916035" Properties=species:S:1:pos:R:3:initial_magmoms:R:1 pbc="T T T"
Si      -1.35759293      -1.35698958      -1.35778089       0.00000000
Si       1.35723719       1.35812988      -1.35747083       0.00000000
Si       1.35774218      -1.35614250       1.36070922       0.00000000
Si      -1.36044262       1.35793440       1.36170830       0.00000000
Si      -2.71522113      -2.71285515      -0.00082682       0.00000000
Si       2.71619786      -2.71349046      -0.00027561       0.00000000
Si      -0.00013684      -2.71469592      -2.71518282       0.00000000
Si       2.71525304       0.00109143      -2.71470050       0.00000000
Si      -2.71562838       0.00027693      -2.71514836       0.00000000
Si       0.00016779       2.71560816      -2.71518282       0.00000000
