10
Lattice="16.28999089631971 0.0 0.0 0.0 16.28999089631971 0.0 0.0 0.0 34.450931932916035" Properties=species:S:1:pos:R:3:initial_magmoms:R:1 pbc="T T T"
Si      -1.35570704       1.35899325      -1.36250067       0.00000000
Si       1.36044262      -1.35793440      -1.36170830       0.00000000
Si      -1.36031711      -1.36291914       1.37218139       0.00000000
Si       1.38408104       1.35786924       1.37796915       0.00000000
Si      -2.70795623      -2.71560816      -0.00168810       0.00000000
Si      -2.71162148       2.71278999      -0.00492649       0.00000000
Si       2.71605081       2.71345788      -0.00423747       0.00000000
Si      -2.71154003      -0.00057015      -2.71900687       0.00000000
Si       2.71818480      -2.71407690      -0.00099908       0.00000000
Si       0.00297057       2.71472850      -2.71938583       0.00000000
