10
Lattice="16.28999089631971 0.0 0.0 0.0 16.28999089631971 0.0 0.0 0.0 34.450931932916035" Properties=species:S:1:pos:R:3:initial_magmoms:R:1 pbc="T T T"
Si      -1.73690496       1.52831151       0.55717523       0.00000000
Si      -0.62472150      -1.76147028       1.48917682       0.00000000
Si       2.15855532       0.85502952       0.72987785       0.00000000
Si      -0.80275491      -0.83331495      -2.26201500       0.00000000
Si      -3.34861964       0.05028723      -0.22241534       0.00000000
Si       3.23543835       0.04049694      -1.17178020       0.00000000
Si      -2.83566872      -1.98182511       0.78892678       0.00000000
Si       2.65792527      -2.31914214      -1.11548735       0.00000000
Si       2.89064421      -0.86138262       2.36936417       0.00000000
Si       2.23505316       0.92536974      -3.15115960       0.00000000
