10
Lattice="16.28999089631971 0.0 0.0 0.0 16.28999089631971 0.0 0.0 0.0 34.450931932916035" Properties=species:S:1:pos:R:3:initial_magmoms:R:1 pbc="T T T"
Si       0.16474077       0.31475538       2.28468373       0.00000000
Si      -2.21094722      -0.22035483      -0.70025003       0.00000000
Si       1.00100421      -2.13470676       0.14142115       0.00000000
Si       0.62472150       1.76147028      -1.48917682       0.00000000
Si       3.07902177      -1.14461685      -0.33038462       0.00000000
Si      -1.11218346       3.28978179      -0.93200158       0.00000000
Si      -2.11024733      -2.08528290      -2.12038714       0.00000000
Si      -0.61533846      -3.46097340      -0.99153283       0.00000000
Si      -1.36774098      -1.37500632       3.10961176       0.00000000
Si      -2.72389814       1.81175751      -1.71159216       0.00000000
