10
Lattice="16.28999089631971 0.0 0.0 0.0 16.28999089631971 0.0 0.0 0.0 34.450931932916035" Properties=species:S:1:pos:R:3:initial_magmoms:R:1 pbc="T T T"
Si       0.28579404      -0.17985789      -2.29202178       0.00000000
Si      -1.36587091       1.89356589       0.13260171       0.00000000
Si      -1.49795023      -1.54305396       0.95845991       0.00000000
Si       2.28224920      -0.03155373       0.68567728       0.00000000
Si       1.69364263      -2.05866504      -2.17967723       0.00000000
Si       1.94600731       1.54142496      -2.41497723       0.00000000
Si       2.62010380      -2.29948011      -0.07803140       0.00000000
Si      -3.29959165      -1.33978734      -0.46501894       0.00000000
Si       2.97042025       1.99150137      -0.34840247       0.00000000
Si      -3.51970213       0.97130754      -0.02735406       0.00000000
