10
Lattice="16.28999089631971 0.0 0.0 0.0 16.28999089631971 0.0 0.0 0.0 34.450931932916035" Properties=species:S:1:pos:R:3:initial_magmoms:R:1 pbc="T T T"
Si       0.56661507      -2.19983418       0.37606658       0.00000000
Si       0.17267400      -0.20680155      -2.31841121       0.00000000
Si       1.95563079       1.19703807       0.64774678       0.00000000
Si      -2.29297130       0.72956394       0.53137147       0.00000000
Si       0.87671151      -1.98408942       2.70382989       0.00000000
Si      -2.10957520      -0.17524782      -3.00408849       0.00000000
Si      -0.47094390      -3.58327872      -1.26686483       0.00000000
Si       1.94398344       3.33786987      -0.14651990       0.00000000
Si       3.85432803       0.30459042      -0.45464920       0.00000000
Si       0.86084505       1.81625355      -3.35249096       0.00000000
