10
Lattice="16.28999089631971 0.0 0.0 0.0 16.28999089631971 0.0 0.0 0.0 34.450931932916035" Properties=species:S:1:pos:R:3:initial_magmoms:R:1 pbc="T T T"
Si      -1.80979524       1.60709225      -0.32335663       0.00000000
Si      -0.88478190      -1.80757098      -1.39381658       0.00000000
Si       1.71290816       0.93209751      -1.48411253       0.00000000
Si       0.29715566      -0.27952011       2.65806314       0.00000000
Si       0.39766008       2.29557770      -2.87000539       0.00000000
Si      -2.31458976      -0.44154045      -2.85770640       0.00000000
Si      -3.34437840       0.97288003       1.44222017       0.00000000
Si      -1.99867779      -0.24777090       3.23211934       0.00000000
Si       2.67287786       2.75994044      -0.26744273       0.00000000
Si      -0.94134276       3.61295000      -1.31123765       0.00000000
