10
Lattice="16.28999089631971 0.0 0.0 0.0 16.28999089631971 0.0 0.0 0.0 34.450931932916035" Properties=species:S:1:pos:R:3:initial_magmoms:R:1 pbc="T T T"
Si      -1.25879020      -1.90623951      -0.23171710       0.00000000
Si      -0.25541091       0.82783257       2.18615401       0.00000000
Si       2.14254225      -0.88238043      -0.45513152       0.00000000
Si      -0.54675756       1.25426225      -1.96897521       0.00000000
Si      -0.69056568      -2.43730980      -2.48312121       0.00000000
Si       1.04314644       2.83663376       1.96477220       0.00000000
Si       3.19238388       0.98442329      -1.45245210       0.00000000
Si      -3.42706481      -1.24895430       0.38864118       0.00000000
Si       1.68249636      -2.29620582      -2.33763484       0.00000000
Si       1.53510444       1.85817002      -2.90545542       0.00000000
