10
Lattice="16.28999089631971 0.0 0.0 0.0 16.28999089631971 0.0 0.0 0.0 34.642051614445585" Properties=species:S:1:pos:R:3:initial_magmoms:R:1 pbc="T T T"
Si      -2.22990389      -0.30533976       0.76067059       0.00000000
Si       0.80842383      -2.20769736       0.34434219       0.00000000
Si      -0.47688975       0.03244968      -2.35929824       0.00000000
Si       1.04273919       1.36291914       1.81389348       0.00000000
Si       0.82681524      -2.04988473      -2.50347854       0.00000000
Si      -1.35789042      -1.01493216       2.89001477       0.00000000
Si       0.39728052      -2.69197789       2.67121545       0.00000000
Si      -0.31843692       0.90078813       3.76431136       0.00000000
Si       3.37792698       0.92281221       1.93735782       0.00000000
Si      -3.67143110       1.64413341       0.28420355       0.00000000
