10
Lattice="16.28999089631971 0.0 0.0 0.0 16.28999089631971 0.0 0.0 0.0 34.642051614445585" Properties=species:S:1:pos:R:3:initial_magmoms:R:1 pbc="T T T"
Si       1.61052714       1.23922265      -1.32820960       0.00000000
Si       1.43798346      -1.24044833       1.53508023       0.00000000
Si      -1.28037771       1.47798518       1.52167029       0.00000000
Si      -0.87809616      -1.77941927      -1.53900661       0.00000000
Si      -2.59999803      -2.50756598       0.05160283       0.00000000
Si       2.76296319      -2.52357905      -0.02463398       0.00000000
Si       3.54848328      -0.41415859      -1.39208958       0.00000000
Si       0.08627184      -2.59369121       2.92273421       0.00000000
Si      -2.62962954       0.12126439       2.91881965       0.00000000
Si       2.73466746       2.86046861       0.11460983       0.00000000
