10
Lattice="16.28999089631971 0.0 0.0 0.0 16.28999089631971 0.0 0.0 0.0 34.642051614445585" Properties=species:S:1:pos:R:3:initial_magmoms:R:1 pbc="T T T"
Si       1.35459495      -1.35247629       1.35932022       0.00000000
Si      -1.35426915       1.35095413       1.36354656       0.00000000
Si       1.35685926       1.35646016      -1.35699920       0.00000000
Si      -1.35866745      -1.35837025      -1.35627172       0.00000000
Si       2.69205282       0.01869929       2.68126165       0.00000000
Si      -0.00169416       2.71403617      -2.71382520       0.00000000
Si       2.71433754      -0.00139931      -2.71368663       0.00000000
Si      -0.00086337      -2.71591671      -2.71385984       0.00000000
Si      -2.71620112      -0.00069884      -2.71375591       0.00000000
Si      -0.02767671      -2.71174647       2.71836331       0.00000000
