10
Lattice="16.28999089631971 0.0 0.0 0.0 16.28999089631971 0.0 0.0 0.0 34.642051614445585" Properties=species:S:1:pos:R:3:initial_magmoms:R:1 pbc="T T T"
Si       2.06501814      -0.08923662      -1.02062470       0.00000000
Si      -1.19858562      -1.59850512      -1.28591367       0.00000000
Si      -0.44849628       2.24003790      -0.68923864       0.00000000
Si       1.06267815      -0.62151237       2.06785450       0.00000000
Si      -0.48858597      -3.37448448       0.14795629       0.00000000
Si       1.23357654      -0.18549423      -3.23934541       0.00000000
Si      -1.42130250       3.10847409       1.25317692       0.00000000
Si       1.09245627      -2.95608114       1.86997899       0.00000000
Si       3.05499402       2.01862422      -0.65816471       0.00000000
Si      -3.38043564      -1.50338781      -0.40011592       0.00000000
