10
Lattice="16.28999089631971 0.0 0.0 0.0 16.28999089631971 0.0 0.0 0.0 34.642051614445585" Properties=species:S:1:pos:R:3:initial_magmoms:R:1 pbc="T T T"
Si       0.02977812      -2.33456877      -0.19787551       0.00000000
Si      -1.39883859       0.70980417       1.76283107       0.00000000
Si      -1.06267815       0.62151237      -2.06785450       0.00000000
Si       2.34538533       0.69463818       0.38754085       0.00000000
Si       1.00233999       0.53227575      -3.08847920       0.00000000
Si      -1.17602397       2.99408571       1.06901967       0.00000000
Si       0.24099426       0.21269853       3.49722099       0.00000000
Si       2.31094827      -2.64036221      -0.79905401       0.00000000
Si      -1.55126412      -2.75297211      -1.91989822       0.00000000
Si       2.39231682       0.68185053       2.81435649       0.00000000
