10
Lattice="16.28999089631971 0.0 0.0 0.0 16.28999089631971 0.0 0.0 0.0 34.642051614445585" Properties=species:S:1:pos:R:3:initial_magmoms:R:1 pbc="T T T"
Si      -1.21904586       1.42848639       1.43396003       0.00000000
Si       1.78051329       1.06955253      -1.19600087       0.00000000
Si      -1.90754271      -0.74616345      -1.26422937       0.00000000
Si       1.46803851      -1.31439123       1.43057550       0.00000000
Si      -2.67359625      -2.55928932      -0.01744575       0.00000000
Si       3.44036655      -0.75482973      -1.28119685       0.00000000
Si      -2.58243741       0.04812066       2.79958511       0.00000000
Si      -3.55667715       0.97775838      -1.03189896       0.00000000
Si       2.78376552      -2.64108141      -0.00597576       0.00000000
Si      -2.56735287       2.87583660       0.04904278       0.00000000
