10
Lattice="16.28999089631971 0.0 0.0 0.0 16.28999089631971 0.0 0.0 0.0 34.642051614445585" Properties=species:S:1:pos:R:3:initial_magmoms:R:1 pbc="T T T"
Si      -1.35351981       1.35553977       1.35821168       0.00000000
Si       1.35694071       1.35718506      -1.35627172       0.00000000
Si      -1.35690813      -1.35830907      -1.35654886       0.00000000
Si       1.35679410      -1.35865116       1.35831560       0.00000000
Si       0.02531466      -2.70721881       2.71586908       0.00000000
Si       0.00809613       2.70840798       2.71656192       0.00000000
Si      -2.71480506      -0.00074934      -2.71327092       0.00000000
Si      -0.00011403       2.71427238      -2.71389448       0.00000000
Si       2.71511946      -0.00066789      -2.71375591       0.00000000
Si      -0.00043983      -2.71557558      -2.71358270       0.00000000
