10
Lattice="16.28999089631971 0.0 0.0 0.0 16.28999089631971 0.0 0.0 0.0 34.642051614445585" Properties=species:S:1:pos:R:3:initial_magmoms:R:1 pbc="T T T"
Si      -1.24359489       1.92156840      -0.68975828       0.00000000
Si       0.04447170      -1.40181966      -1.94009454       0.00000000
Si      -1.10420136      -0.54594306       2.12210398       0.00000000
Si       1.85487714       1.49043726       0.70936569       0.00000000
Si       1.00875825       0.40348701      -3.27422998       0.00000000
Si       2.91636612       1.21764492      -1.54825808       0.00000000
Si      -1.44839277       3.07833759       1.36773825       0.00000000
Si      -0.37774881      -2.79616221       2.41327059       0.00000000
Si      -0.27735354       0.91018746       3.83626294       0.00000000
Si      -3.43938915      -0.10583613       1.99863964       0.00000000
