10
Lattice="16.28999089631971 0.0 0.0 0.0 16.28999089631971 0.0 0.0 0.0 34.642051614445585" Properties=species:S:1:pos:R:3:initial_magmoms:R:1 pbc="T T T"
Si      -0.29818845      -2.34059674       0.29757539       0.00000000
Si       0.41114331       0.48428052      -2.32687327       0.00000000
Si       2.13219810       0.38137008       1.11575182       0.00000000
Si      -1.75517094       1.67704573       0.21879932       0.00000000
Si      -0.39728052       2.69197789      -2.67121545       0.00000000
Si      -0.71571744       3.59276602       1.09309591       0.00000000
Si       1.14771195      -3.51505687      -1.18520917       0.00000000
Si      -0.30744117      -2.90792857       2.60349020       0.00000000
Si       3.70709901       1.36457095      -0.44269102       0.00000000
Si      -2.62718441       2.38663813      -1.91054486       0.00000000
