10
Lattice="16.28999089631971 0.0 0.0 0.0 16.28999089631971 0.0 0.0 0.0 34.642051614445585" Properties=species:S:1:pos:R:3:initial_magmoms:R:1 pbc="T T T"
Si       1.35511623       1.33086042       1.36444725       0.00000000
Si       1.21904586      -1.42848639      -1.43396003       0.00000000
Si      -1.36339155      -1.38036573       1.36562508       0.00000000
Si      -1.34830701       1.44735021      -1.38491725       0.00000000
Si      -2.33763129      -0.45072801      -2.46585899       0.00000000
Si      -0.68849685      -2.17464984      -2.69818940       0.00000000
Si       2.70883152       2.70635544      -0.02247924       0.00000000
Si      -0.00267156       2.69223201       2.72539565       0.00000000
Si       2.68708437      -2.74287762      -0.00338453       0.00000000
Si       2.71217097      -0.02244762       2.72536101       0.00000000
