10
Lattice="16.28999089631971 0.0 0.0 0.0 16.28999089631971 0.0 0.0 0.0 34.642051614445585" Properties=species:S:1:pos:R:3:initial_magmoms:R:1 pbc="T T T"
Si      -1.70439012       1.67335767      -0.30356847       0.00000000
Si      -0.67898349      -1.95918201      -1.27503606       0.00000000
Si      -1.00286127      -0.08555508       2.31235824       0.00000000
Si       2.12276619       0.60344676      -1.30718391       0.00000000
Si      -0.10896381      -3.30792885       1.02100576       0.00000000
Si       0.67020318       1.89827370      -2.93903330       0.00000000
Si      -2.06065242      -0.81446742      -2.94887165       0.00000000
Si      -0.73106262       3.25638729      -1.68592567       0.00000000
Si      -0.31376169      -2.15115966       3.07850228       0.00000000
Si      -3.35134170       0.32013108       1.75548695       0.00000000
