10
Lattice="16.28999089631971 0.0 0.0 0.0 16.28999089631971 0.0 0.0 0.0 34.642051614445585" Properties=species:S:1:pos:R:3:initial_magmoms:R:1 pbc="T T T"
Si      -0.72246150       2.04450903      -0.93640982       0.00000000
Si      -1.67993883      -0.93954204       1.37937798       0.00000000
Si       1.88968887       0.65274030       1.35464354       0.00000000
Si       0.07718202      -1.42574967      -2.00556806       0.00000000
Si      -2.27129841      -1.02006351      -2.56243935       0.00000000
Si       1.40263416       2.99951028      -1.42967827       0.00000000
Si      -1.48452399       0.38424852       3.27166647       0.00000000
Si       0.85942782       0.57563973       3.52285612       0.00000000
Si       0.76628160      -3.49135425      -1.23942402       0.00000000
Si      -2.00834523       1.39558059      -2.97901025       0.00000000
