10
Lattice="16.28999089631971 0.0 0.0 0.0 16.28999089631971 0.0 0.0 0.0 34.642051614445585" Properties=species:S:1:pos:R:3:initial_magmoms:R:1 pbc="T T T"
Si      -0.68909958       2.06560458      -0.76614404       0.00000000
Si       0.20479788      -1.15676919      -2.05749652       0.00000000
Si      -2.08130814      -0.79390944       0.81072839       0.00000000
Si       2.02031838      -0.25148502       1.38266898       0.00000000
Si       1.17103923      -2.16815013       2.46852469       0.00000000
Si      -2.05535817       0.19122831       2.98621580       0.00000000
Si       1.44839277      -3.07833759      -1.36773825       0.00000000
Si       0.34419141      -3.62428065       0.75436574       0.00000000
Si       3.30326991      -1.58790033      -0.65837256       0.00000000
Si       0.31376169       2.15115966      -3.07850228       0.00000000
