10
Lattice="16.28999089631971 0.0 0.0 0.0 16.28999089631971 0.0 0.0 0.0 34.642051614445585" Properties=species:S:1:pos:R:3:initial_magmoms:R:1 pbc="T T T"
Si       0.60590655      -0.55056942       2.25908986       0.00000000
Si       1.81534131      -0.83865807      -1.37099460       0.00000000
Si      -0.85007736       2.06252577      -1.00832676       0.00000000
Si      -2.05073181      -1.21277421      -0.95958537       0.00000000
Si      -2.47106268       0.79373025      -2.25495633       0.00000000
Si       0.67486212      -1.63621647      -3.28767110       0.00000000
Si       2.61821025      -2.78319537      -0.11106248       0.00000000
Si       2.26575981      -2.37495168       2.17389388       0.00000000
Si       3.42282222       0.92494620      -1.77391653       0.00000000
Si      -1.17460674      -1.62012195       3.45509073       0.00000000
