10
Lattice="16.28999089631971 0.0 0.0 0.0 16.28999089631971 0.0 0.0 0.0 34.642051614445585" Properties=species:S:1:pos:R:3:initial_magmoms:R:1 pbc="T T T"
Si      -1.78964125      -0.02196218       1.51628345       0.00000000
Si       0.26324803      -2.32706952      -0.27786405       0.00000000
Si       1.39281292       1.56082309       1.08938921       0.00000000
Si      -1.00048849       0.95662699      -1.92419383       0.00000000
Si       0.91595086       1.31059240      -3.15558089       0.00000000
Si      -0.22076697       3.20125867       1.67161849       0.00000000
Si      -1.26011851      -2.72941623      -2.03293529       0.00000000
Si      -3.60604141       0.81602800       0.10247125       0.00000000
Si      -2.22047917      -0.77515476      -2.89735889       0.00000000
Si      -1.43849401       1.73903569       3.03426435       0.00000000
