10
Lattice="16.28999089631971 0.0 0.0 0.0 16.28999089631971 0.0 0.0 0.0 34.642051614445585" Properties=species:S:1:pos:R:3:initial_magmoms:R:1 pbc="T T T"
Si       0.72246150      -2.04450903       0.93640982       0.00000000
Si      -1.44590040       1.17446013       1.48278456       0.00000000
Si       2.12509566       0.95500125      -0.49326845       0.00000000
Si      -1.28588373      -0.64892844      -2.04260043       0.00000000
Si      -3.52915194       0.07296291       1.11162942       0.00000000
Si       0.79964352      -3.47025870      -1.06915824       0.00000000
Si       2.61215037      -1.39176873       2.29105336       0.00000000
Si       3.33866808       0.78252273       1.53693012       0.00000000
Si      -1.54883691      -3.06457254      -1.62602953       0.00000000
Si      -1.14771195       3.51505687       1.18520917       0.00000000
