10
Lattice="16.28999089631971 0.0 0.0 0.0 16.28999089631971 0.0 0.0 0.0 34.642051614445585" Properties=species:S:1:pos:R:3:initial_magmoms:R:1 pbc="T T T"
Si       0.46791396       1.56751244      -1.75399734       0.00000000
Si       1.43003394      -1.28138769       1.45669908       0.00000000
Si      -0.10663434      -1.92691152      -1.54645669       0.00000000
Si      -1.92353949       0.39210030       1.60077546       0.00000000
Si       1.11505050      -3.56319315      -0.34832602       0.00000000
Si      -1.11312828       1.14910910      -3.47602004       0.00000000
Si      -2.90680389      -1.77331311       1.76026755       0.00000000
Si       2.74908411       1.26171900      -2.35517584       0.00000000
Si       3.68706231      -0.77721219       0.74788767       0.00000000
Si       3.83663709       1.37664414      -0.19919191       0.00000000
