10
Lattice="16.28999089631971 0.0 0.0 0.0 16.28999089631971 0.0 0.0 0.0 34.642051614445585" Properties=species:S:1:pos:R:3:initial_magmoms:R:1 pbc="T T T"
Si       1.64553435       1.01753856       1.50938417       0.00000000
Si      -1.05420735      -1.64447550       1.58939003       0.00000000
Si      -1.99552500       1.76169834      -0.00498846       0.00000000
Si       0.64835829      -0.11732058      -2.66255493       0.00000000
Si      -1.87014087      -1.89509715      -1.47422797       0.00000000
Si       0.32055462       2.30066928       3.06909838       0.00000000
Si      -3.03411024      -2.41502508       0.51683133       0.00000000
Si      -2.39686173      -0.39304512       3.08262611       0.00000000
Si       2.43105444       3.12695902       0.14192856       0.00000000
Si      -2.70521514       1.55616741      -2.51847856       0.00000000
