10
Lattice="16.28999089631971 0.0 0.0 0.0 16.28999089631971 0.0 0.0 0.0 34.642051614445585" Properties=species:S:1:pos:R:3:initial_magmoms:R:1 pbc="T T T"
Si      -1.72190187      -0.72814671       1.59060944       0.00000000
Si       0.87809616       1.77941927       1.53900661       0.00000000
Si      -0.70969014      -0.20553093      -2.51349010       0.00000000
Si       1.99552500      -1.76169834       0.00498846       0.00000000
Si      -1.69295454      -2.37094434      -2.35399801       0.00000000
Si      -0.40133673      -2.15474346       3.08761457       0.00000000
Si      -2.93638653      -2.39205618       0.35615513       0.00000000
Si       0.94131765      -3.40617384       1.59437849       0.00000000
Si       2.31607962       0.53897094       3.07408684       0.00000000
Si       2.48862330       3.01864193       0.21079700       0.00000000
