10
Lattice="16.28999089631971 0.0 0.0 0.0 16.28999089631971 0.0 0.0 0.0 34.642051614445585" Properties=species:S:1:pos:R:3:initial_magmoms:R:1 pbc="T T T"
Si      -1.35795069       1.35705474      -1.35738027       0.00000000
Si       1.35720135      -1.35773729      -1.35779597       0.00000000
Si      -1.35856971      -1.35749620       1.35769205       0.00000000
Si       1.35816246       1.36062225       1.35692992       0.00000000
Si       0.00065160       2.71029762       2.71413698       0.00000000
Si      -2.71463076       2.71448415      -0.00020785       0.00000000
Si       2.71494027      -0.00076563      -2.71444876       0.00000000
Si       2.71513575       2.71471221       0.00000000       0.00000000
Si       2.71484253      -2.71502953       0.00000000       0.00000000
Si       0.00000000       2.71500543      -2.71503767       0.00000000
