10
Lattice="16.28999089631971 0.0 0.0 0.0 16.28999089631971 0.0 0.0 0.0 34.642051614445585" Properties=species:S:1:pos:R:3:initial_magmoms:R:1 pbc="T T T"
Si       1.66944807      -0.35627763       1.54628348       0.00000000
Si       0.07441272       1.56966367      -1.73535990       0.00000000
Si      -2.17461726       0.44547448       0.85922729       0.00000000
Si      -0.92571183      -2.21192040      -0.45980421       0.00000000
Si      -0.82995921      -0.15049109      -3.20255554       0.00000000
Si      -2.50020549      -1.89191964       1.38079831       0.00000000
Si      -2.46581730      -1.33141332      -1.99191908       0.00000000
Si       3.55578120      -1.18586217       0.49150170       0.00000000
Si       2.01468204       1.54105844       2.84383689       0.00000000
Si      -2.06591409       2.03270692       2.61658490       0.00000000
