10
Lattice="16.28999089631971 0.0 0.0 0.0 16.28999089631971 0.0 0.0 0.0 34.642051614445585" Properties=species:S:1:pos:R:3:initial_magmoms:R:1 pbc="T T T"
Si      -1.02179025       1.15126317       1.83973646       0.00000000
Si      -0.60414723      -2.24073511       0.68154810       0.00000000
Si      -1.10824128       0.52939242      -2.09982913       0.00000000
Si       2.31401079       0.80324361       0.15672073       0.00000000
Si      -0.96819615       2.89271304      -2.31547602       0.00000000
Si      -3.10261132       2.14366626       0.82967760       0.00000000
Si      -1.57876164      -3.34010879      -1.20194129       0.00000000
Si       0.15672609       3.23020926       2.19835118       0.00000000
Si       1.35117405      -3.41654147       1.55078695       0.00000000
Si      -3.46111675      -0.06675642      -2.06342032       0.00000000
