10
Lattice="16.28999089631971 0.0 0.0 0.0 16.28999089631971 0.0 0.0 0.0 34.642051614445585" Properties=species:S:1:pos:R:3:initial_magmoms:R:1 pbc="T T T"
Si      -0.34523397      -1.89733607      -1.29755341       0.00000000
Si      -2.04986844       0.57927240       1.02284179       0.00000000
Si       0.47337111       2.13133473      -0.93644446       0.00000000
Si       1.48154292      -0.88187870       1.70844301       0.00000000
Si       1.31891985       3.14581077       1.03333834       0.00000000
Si      -0.88804935      -3.55412681       0.34960778       0.00000000
Si       0.64713654      -3.04475480       2.13211554       0.00000000
Si      -2.01468204      -1.54105844      -2.84383689       0.00000000
Si       3.61069479      -1.28162390       0.69246036       0.00000000
Si       1.54109916      -2.72692061      -2.35233519       0.00000000
