10
Lattice="16.28999089631971 0.0 0.0 0.0 16.28999089631971 0.0 0.0 0.0 34.642051614445585" Properties=species:S:1:pos:R:3:initial_magmoms:R:1 pbc="T T T"
Si       1.34113941      -0.85204845      -1.73567168       0.00000000
Si      -0.67352634       2.18204550      -0.56986207       0.00000000
Si       1.37073834       0.76323537       1.76515208       0.00000000
Si      -1.77005511      -1.39269400       0.87831507       0.00000000
Si      -3.38514345       0.33974424       0.54900754       0.00000000
Si      -2.39516757       2.44760508       0.91146753       0.00000000
Si       3.15753957      -1.69003863      -0.32185948       0.00000000
Si       0.30998241      -0.16441497       3.68072004       0.00000000
Si       3.50868681       0.07095924       1.19612143       0.00000000
Si       2.26962054       0.91497672      -3.09873325       0.00000000
