10
Lattice="16.28999089631971 0.0 0.0 0.0 16.28999089631971 0.0 0.0 0.0 34.642051614445585" Properties=species:S:1:pos:R:3:initial_magmoms:R:1 pbc="T T T"
Si       2.00275776       0.27278257      -1.16438929       0.00000000
Si      -0.14957478      -2.15385633       0.94707958       0.00000000
Si      -1.08755298      -0.11492514      -2.15598393       0.00000000
Si       0.35821710       1.26075803       2.20029114       0.00000000
Si       1.29896460       2.55355361      -1.31369662       0.00000000
Si      -1.05311592       3.22007525      -0.96938907       0.00000000
Si      -0.55638495      -2.40838758      -2.68243948       0.00000000
Si      -1.00618443       3.20728760       1.45742657       0.00000000
Si       0.37152603      -3.56720931      -0.85853444       0.00000000
Si      -3.36872313       0.19086830      -1.55480543       0.00000000
