10
Lattice="16.28999089631971 0.0 0.0 0.0 16.28999089631971 0.0 0.0 0.0 34.642051614445585" Properties=species:S:1:pos:R:3:initial_magmoms:R:1 pbc="T T T"
Si      -1.35751086       1.34967537       1.35720706       0.00000000
Si       1.35697329       1.35408996      -1.35692992       0.00000000
Si      -1.35816246      -1.36062225      -1.35692992       0.00000000
Si       1.35677781      -1.36233270       1.36347727       0.00000000
Si      -2.69871543      -0.00851967       2.71919472       0.00000000
Si      -2.71373481       2.71262709       0.00214781       0.00000000
Si      -0.00117288       2.71230129      -2.71417162       0.00000000
Si       2.71474479       2.71210581       0.00003464       0.00000000
Si       2.71484253      -0.00390960      -2.71406769       0.00000000
Si      -2.71611315      -0.00356751      -2.71431019       0.00000000
