10
Lattice="16.28999089631971 0.0 0.0 0.0 16.28999089631971 0.0 0.0 0.0 34.642051614445585" Properties=species:S:1:pos:R:3:initial_magmoms:R:1 pbc="T T T"
Si      -1.72164123       0.26555958       1.48132960       0.00000000
Si      -0.53331831       0.38677347      -2.21847823       0.00000000
Si       1.26470673       1.79725941       0.78145584       0.00000000
Si       0.67352634      -2.18204550       0.56986207       0.00000000
Si       2.04426468      -1.41881013       2.33501415       0.00000000
Si      -2.71161711      -1.84230126       1.11886961       0.00000000
Si       2.54060469       0.91264725       2.49097276       0.00000000
Si      -0.37633158       2.69957880      -2.65566116       0.00000000
Si       2.01466575      -3.03409395      -1.16580961       0.00000000
Si      -2.55753000      -0.62464005      -2.78924099       0.00000000
