10
Lattice="16.28999089631971 0.0 0.0 0.0 16.28999089631971 0.0 0.0 0.0 34.642051614445585" Properties=species:S:1:pos:R:3:initial_magmoms:R:1 pbc="T T T"
Si       1.72164123      -0.26555958      -1.48132960       0.00000000
Si      -1.62810405       1.64457324      -0.43198663       0.00000000
Si      -0.98997588      -2.10786084      -0.36245999       0.00000000
Si       0.79500087       0.20222406       2.25512954       0.00000000
Si       2.98634796       1.53169983      -0.69987376       0.00000000
Si      -3.50349030       0.22141368      -0.03107394       0.00000000
Si       2.39516757      -2.44760508      -0.91146753       0.00000000
Si      -1.40576184       2.86751241       1.59117960       0.00000000
Si       0.35306946      -1.94549841       3.11356006       0.00000000
Si      -0.96583410       1.32028821       3.31323695       0.00000000
