10
Lattice="16.28999089631971 0.0 0.0 0.0 16.28999089631971 0.0 0.0 0.0 34.642051614445585" Properties=species:S:1:pos:R:3:initial_magmoms:R:1 pbc="T T T"
Si       1.23419556      -1.39950648       1.43116788       0.00000000
Si      -1.47936006       1.32359508       1.38874866       0.00000000
Si      -1.18863243      -1.74169422      -1.21873300       0.00000000
Si       1.92487527       0.71487036      -1.43449494       0.00000000
Si       2.62622493       2.58538590       0.04210744       0.00000000
Si       2.45078163      -2.76605829      -0.01904621       0.00000000
Si       2.59770114      -0.04883742       2.78114860       0.00000000
Si       0.47122083      -3.56607648      -1.30392898       0.00000000
Si      -0.12114873       2.66823684       2.77480910       0.00000000
Si      -0.11834685      -2.76053598       2.77626407       0.00000000
