10
Lattice="16.28999089631971 0.0 0.0 0.0 16.28999089631971 0.0 0.0 0.0 34.642051614445585" Properties=species:S:1:pos:R:3:initial_magmoms:R:1 pbc="T T T"
Si       1.35669636      -1.35684297      -1.35713777       0.00000000
Si      -1.35736425       1.35708732      -1.35699920       0.00000000
Si      -1.35586557      -1.35651717       1.35918165       0.00000000
Si       1.35782037       1.35817875       1.35738027       0.00000000
Si       2.71300176       0.00117288      -2.71458732       0.00000000
Si       0.00094482       2.71378368      -2.71413698       0.00000000
Si      -2.71510317       0.00039096      -2.71410233       0.00000000
Si      -0.00029322      -2.71476108      -2.71493374       0.00000000
Si       2.71437012       2.71538010      -0.00013857       0.00000000
Si       2.71484253      -2.71505430       0.00010393       0.00000000
