10
Lattice="16.28999089631971 0.0 0.0 0.0 16.28999089631971 0.0 0.0 0.0 34.642051614445585" Properties=species:S:1:pos:R:3:initial_magmoms:R:1 pbc="T T T"
Si      -0.30877695      -2.33197866       0.26379937       0.00000000
Si      -2.10300642       0.97419087      -0.51914608       0.00000000
Si       0.81852363       0.74336157       2.14029107       0.00000000
Si       1.53420849       0.88114239      -1.65911271       0.00000000
Si      -3.13326747       0.89709030       1.64906650       0.00000000
Si      -1.37648871       3.14848233      -1.27326932       0.00000000
Si       1.03677705       3.19981212      -1.49082152       0.00000000
Si       2.62168002      -0.77180391       2.54276265       0.00000000
Si       1.75896162      -3.49282035       0.36200964       0.00000000
Si      -1.76836095      -2.85979095       2.14912480       0.00000000
