10
Lattice="16.28999089631971 0.0 0.0 0.0 16.28999089631971 0.0 0.0 0.0 34.642051614445585" Properties=species:S:1:pos:R:3:initial_magmoms:R:1 pbc="T T T"
Si      -1.35101115      -1.36241415       1.39037684       0.00000000
Si       1.36870209       1.35171162       1.39176252       0.00000000
Si       1.39636251      -1.44526509      -1.34232482       0.00000000
Si      -1.38694689       1.42296408      -1.55238395       0.00000000
Si       2.69785206       2.70317889       0.01496537       0.00000000
Si      -2.70922248      -2.70705591       0.00431640       0.00000000
Si      -2.71192662       2.70609480       0.00733026       0.00000000
Si      -2.70710478      -0.00548973       2.75184487       0.00000000
Si       0.00928530       2.70791737       2.75174094       0.00000000
Si       2.73657339      -2.73631275       0.04192730       0.00000000
