10
Lattice="16.28999089631971 0.0 0.0 0.0 16.28999089631971 0.0 0.0 0.0 34.642051614445585" Properties=species:S:1:pos:R:3:initial_magmoms:R:1 pbc="T T T"
Si      -0.91662201       1.14350980      -1.84926303       0.00000000
Si       0.81728559       1.62953172       1.51746128       0.00000000
Si       1.40051646      -1.82671173      -0.60072815       0.00000000
Si      -1.84254561      -1.13182920       1.01175632       0.00000000
Si       0.51080553       0.18933201       3.47757894       0.00000000
Si      -0.79780275       3.36196997       1.18815375       0.00000000
Si      -3.12673518      -1.71584199      -0.80303785       0.00000000
Si      -2.55917529      -0.34218774      -2.62070731       0.00000000
Si       2.35048410      -1.18413639      -2.65670042       0.00000000
Si       1.04197356      -2.10413043       2.95112338       0.00000000
