10
Lattice="16.28999089631971 0.0 0.0 0.0 16.28999089631971 0.0 0.0 0.0 34.642051614445585" Properties=species:S:1:pos:R:3:initial_magmoms:R:1 pbc="T T T"
Si      -0.71045577       0.44919675      -2.19066588       0.00000000
Si       0.81225198       1.88745714       1.18795248       0.00000000
Si      -2.04009444      -0.81125014       1.09977802       0.00000000
Si       1.80849951      -1.70117122      -0.19943964       0.00000000
Si       2.14236994       0.53369298       2.53128885       0.00000000
Si      -0.60139422      -2.19088187       2.49061906       0.00000000
Si       1.17051795      -0.59265789      -3.29827681       0.00000000
Si       0.68693301      -3.50045126       0.97947996       0.00000000
Si       3.50165997      -0.70845699       1.09461635       0.00000000
Si       2.60225487       2.81038338      -0.08064882       0.00000000
