10
Lattice="16.28999089631971 0.0 0.0 0.0 16.28999089631971 0.0 0.0 0.0 34.642051614445585" Properties=species:S:1:pos:R:3:initial_magmoms:R:1 pbc="T T T"
Si       0.20396709      -0.54073515      -2.23971381       0.00000000
Si      -0.44913159      -2.09211560       0.99353460       0.00000000
Si       1.83336687       1.28757789       0.87779544       0.00000000
Si      -1.75143564       1.90381230       0.01385683       0.00000000
Si       0.39183966       3.23705106       0.40132839       0.00000000
Si      -0.43104969      -1.50776168       3.26536161       0.00000000
Si       1.55923712       0.92696616      -3.38106613       0.00000000
Si      -2.50064532      -2.95305839       0.22056607       0.00000000
Si      -1.36208835      -1.94150247      -3.32123927       0.00000000
Si       2.70538034       0.57798549       3.00713961       0.00000000
