10
Lattice="16.28999089631971 0.0 0.0 0.0 16.28999089631971 0.0 0.0 0.0 34.642051614445585" Properties=species:S:1:pos:R:3:initial_magmoms:R:1 pbc="T T T"
Si      -1.35695700       1.35547461       1.36243801       0.00000000
Si       1.36220400      -1.36171368       1.36250729       0.00000000
Si       1.35373523       1.36010097      -1.37275788       0.00000000
Si      -1.37714031      -1.34965908      -1.36945996       0.00000000
Si       2.71533679      -0.06519258      -2.64674776       0.00000000
Si       0.03231936      -2.71792134      -2.67693486       0.00000000
Si      -2.71134018       2.71106325       0.00748269       0.00000000
Si       2.71755386       2.71238274       0.00349885       0.00000000
Si       0.00190593       2.71200807       2.71992220       0.00000000
Si      -2.71412577      -2.71883358       0.00526559       0.00000000
