10
Lattice="16.28999089631971 0.0 0.0 0.0 16.28999089631971 0.0 0.0 0.0 34.642051614445585" Properties=species:S:1:pos:R:3:initial_magmoms:R:1 pbc="T T T"
Si      -0.53753742      -1.48647879      -1.86014064       0.00000000
Si       1.04515730      -0.60437529       2.12366288       0.00000000
Si      -1.96600752       1.46399859      -0.09415715       0.00000000
Si       1.92000849       1.15206138      -1.02381177       0.00000000
Si      -2.00049345       1.71380574      -2.56995668       0.00000000
Si       1.24339682       3.39908769      -0.94898489       0.00000000
Si       0.90398979      -3.43595196      -1.38367360       0.00000000
Si       2.81545676      -2.22982407       1.61996716       0.00000000
Si      -0.77841765      -0.02666673      -3.87492349       0.00000000
Si      -0.57440169      -1.20229974       3.76067394       0.00000000
