10
Lattice="16.28999089631971 0.0 0.0 0.0 16.28999089631971 0.0 0.0 0.0 34.642051614445585" Properties=species:S:1:pos:R:3:initial_magmoms:R:1 pbc="T T T"
Si      -0.45558243       0.71547309       2.21425189       0.00000000
Si      -0.65629152       1.91788686      -1.23093671       0.00000000
Si      -1.03283487      -1.58146578      -1.43418174       0.00000000
Si       2.18572704      -0.95788458      -0.05431877       0.00000000
Si       0.23451084      -1.73789865       2.59340936       0.00000000
Si       0.02792106      -0.65381544      -3.34974969       0.00000000
Si       0.52426107       1.67764194      -3.19379109       0.00000000
Si      -3.38491539      -0.91494414      -1.08987419       0.00000000
Si       0.74979612       2.77226478       2.32389405       0.00000000
Si      -3.33798390      -0.92773179       1.33694145       0.00000000
