10
Lattice="16.28999089631971 0.0 0.0 0.0 16.28999089631971 0.0 0.0 0.0 34.642051614445585" Properties=species:S:1:pos:R:3:initial_magmoms:R:1 pbc="T T T"
Si      -1.34021088       1.29104766      -1.38425212       0.00000000
Si       1.34521191       1.37161800       1.34966201       0.00000000
Si      -1.36873467      -1.34317566       1.35478904       0.00000000
Si       1.31116581      -1.32981786      -1.49954093       0.00000000
Si      -2.04156054      -0.57946788      -2.86085450       0.00000000
Si       2.14557219       0.49252815      -2.83023091       0.00000000
Si       0.32580000       2.32275852      -2.80920317       0.00000000
Si      -0.34803585      -2.46868434      -2.83224015       0.00000000
Si       2.69634074      -2.69413794      -0.02545153       0.00000000
Si      -0.01435149      -2.69876430       2.70974436       0.00000000
