10
Lattice="16.28999089631971 0.0 0.0 0.0 16.28999089631971 0.0 0.0 0.0 34.642051614445585" Properties=species:S:1:pos:R:3:initial_magmoms:R:1 pbc="T T T"
Si       1.35654975       1.35720135      -1.35751884       0.00000000
Si      -1.35782037      -1.35817875      -1.35738027       0.00000000
Si       1.35698958      -1.35865116       1.35845417       0.00000000
Si      -1.35542574       1.35765747       1.36119089       0.00000000
Si      -0.00001629       2.71389771      -2.71424090       0.00000000
Si       2.71451673       2.71384884      -0.00045035       0.00000000
Si      -2.71368594      -2.71469592       0.00180139       0.00000000
Si       2.71404432      -0.00047241      -2.71448340       0.00000000
Si      -0.00112401      -2.71502172      -2.71451804       0.00000000
Si      -2.71518462      -0.00109143      -2.71437947       0.00000000
