10
Lattice="16.28999089631971 0.0 0.0 0.0 16.28999089631971 0.0 0.0 0.0 34.642051614445585" Properties=species:S:1:pos:R:3:initial_magmoms:R:1 pbc="T T T"
Si       1.34684388       1.36645407      -1.39053273       0.00000000
Si      -1.36625859      -1.34860023      -1.39337338       0.00000000
Si      -1.48634847       1.22131017       1.43061361       0.00000000
Si       1.59526408      -1.33305957       1.67996723       0.00000000
Si      -0.07363080       2.49473205       2.71202381       0.00000000
Si       2.69190199      -2.69241120      -0.02092381       0.00000000
Si      -2.71546155      -2.69928558      -0.02196307       0.00000000
Si       2.69812640       2.71847520      -0.02154737       0.00000000
Si      -0.00845451      -2.70516627      -2.75213933       0.00000000
Si      -2.73678516       2.72150514      -0.00450347       0.00000000
