10
Lattice="16.28999089631971 0.0 0.0 0.0 16.28999089631971 0.0 0.0 0.0 34.642051614445585" Properties=species:S:1:pos:R:3:initial_magmoms:R:1 pbc="T T T"
Si      -1.19555568      -0.97782354       1.74024444       0.00000000
Si      -0.93085947       2.00450079      -0.77636345       0.00000000
Si       1.79626572       0.97225236       1.21725309       0.00000000
Si       0.06734286      -1.80121788      -1.58217267       0.00000000
Si       0.57953304       2.40966567      -2.74451807       0.00000000
Si      -2.54093049      -2.32360560      -1.39209162       0.00000000
Si      -0.35727228       3.65202252       0.81980461       0.00000000
Si       3.50948895       1.42408809      -0.42893812       0.00000000
Si       0.77139666       2.68486893       2.65209303       0.00000000
Si       0.19973169      -2.49684975       2.94370998       0.00000000
