10
Lattice="16.28999089631971 0.0 0.0 0.0 16.28999089631971 0.0 0.0 0.0 34.642051614445585" Properties=species:S:1:pos:R:3:initial_magmoms:R:1 pbc="T T T"
Si       1.19555568       0.97782354      -1.74024444       0.00000000
Si      -1.04536188       1.52718750       1.46636422       0.00000000
Si      -1.90808028      -1.19382894      -0.71438879       0.00000000
Si       1.39528737      -1.51902621       1.20346555       0.00000000
Si      -0.26704197      -2.09614833       2.72272821       0.00000000
Si      -1.02977235       0.09249462       3.37576589       0.00000000
Si       2.99182140       1.95007590      -0.52299135       0.00000000
Si       1.26289854      -0.82339434      -3.32241710       0.00000000
Si      -1.34537481      -1.34578206      -3.13233606       0.00000000
Si       2.64725532      -0.18349056       2.67655033       0.00000000
