10
Lattice="16.28999089631971 0.0 0.0 0.0 16.28999089631971 0.0 0.0 0.0 34.642051614445585" Properties=species:S:1:pos:R:3:initial_magmoms:R:1 pbc="T T T"
Si      -2.00981133       1.10855079       0.52306063       0.00000000
Si       1.82803122       1.49110515      -0.28687099       0.00000000
Si      -0.71024400      -1.88556750      -1.33143336       0.00000000
Si       0.69584364      -1.03118958       2.22339740       0.00000000
Si       3.40802505       0.07837119      -1.38391609       0.00000000
Si      -0.50953491      -3.08798127       2.11375524       0.00000000
Si      -3.61729224      -0.65505348       0.92598256       0.00000000
Si      -0.05395248      -3.80345436      -0.10049665       0.00000000
Si       0.47030859      -2.12581242      -3.29428774       0.00000000
Si       1.52075295       3.10057344      -2.00012925       0.00000000
