10
Lattice="16.28999089631971 0.0 0.0 0.0 16.28999089631971 0.0 0.0 0.0 34.642051614445585" Properties=species:S:1:pos:R:3:initial_magmoms:R:1 pbc="T T T"
Si       1.32914997       1.35146727      -1.37679715       0.00000000
Si       1.35399222      -1.35883035       1.35983985       0.00000000
Si      -1.35941679       1.35620575       1.35997842       0.00000000
Si      -1.36870209      -1.35171162      -1.39176252       0.00000000
Si       2.71308321      -2.71640637      -0.00017321       0.00000000
Si       2.71275741      -0.00091224       2.71718548       0.00000000
Si       2.71459818       2.71589391      -0.00072748       0.00000000
Si      -0.00257382       2.71452555       2.71680442       0.00000000
Si      -0.00167787      -2.71588509       2.71763583       0.00000000
Si      -2.71971324      -2.71412577      -0.00138568       0.00000000
