10
Lattice="16.28999089631971 0.0 0.0 0.0 16.28999089631971 0.0 0.0 0.0 34.642051614445585" Properties=species:S:1:pos:R:3:initial_magmoms:R:1 pbc="T T T"
Si      -1.35652857      -1.35607734       1.35741491       0.00000000
Si       1.35558864      -1.35604476      -1.35963200       0.00000000
Si       1.35816246       1.35894438       1.35679135       0.00000000
Si      -1.35622395       1.35956340      -1.35932022       0.00000000
Si      -0.00040725      -2.71674846      -2.68547413       0.00000000
Si      -2.71157381      -2.71453302      -0.00031178       0.00000000
Si       0.00136836      -2.71363707       2.71413698       0.00000000
Si      -2.71443537       0.00169416       2.71444876       0.00000000
Si       2.71521720       0.00185706       2.71441411       0.00000000
Si       2.71533123      -2.71441899      -0.00041570       0.00000000
