10
Lattice="16.28999089631971 0.0 0.0 0.0 16.28999089631971 0.0 0.0 0.0 34.642051614445585" Properties=species:S:1:pos:R:3:initial_magmoms:R:1 pbc="T T T"
Si       1.35660045      -1.35692442       1.35751884       0.00000000
Si      -1.35769005       1.35814555       1.35741491       0.00000000
Si       1.35773954       1.35876557      -1.35682599       0.00000000
Si      -1.35876519      -1.35791811      -1.35734562       0.00000000
Si       0.00052128       2.71339339       2.71489910       0.00000000
Si       2.71480899      -2.71438641      -0.00013857       0.00000000
Si       0.00009774      -2.71502172       2.71424090       0.00000000
Si      -2.71443528      -2.71497285       0.00045035       0.00000000
Si      -2.71275741       0.00091224      -2.71718548       0.00000000
Si       2.71482691       2.71582060       0.00027714       0.00000000
