10
Lattice="16.28999089631971 0.0 0.0 0.0 16.28999089631971 0.0 0.0 0.0 34.642051614445585" Properties=species:S:1:pos:R:3:initial_magmoms:R:1 pbc="T T T"
Si      -1.98490392      -0.65498832       1.00527826       0.00000000
Si       0.81021573      -1.65149649      -1.50665295       0.00000000
Si      -0.33394500       1.81028231      -1.51773841       0.00000000
Si       1.08172639       0.78753420       2.06487528       0.00000000
Si       0.01720224       3.57128018       0.00024249       0.00000000
Si       1.71894428      -0.49482504      -3.31188591       0.00000000
Si      -2.47770900       1.05513492       2.63414843       0.00000000
Si       2.39157630      -2.95764498      -0.42045082       0.00000000
Si       1.45569625       1.83224448      -3.03402186       0.00000000
Si      -3.36083877      -1.78872345      -0.52936549       0.00000000
