10
Lattice="16.28999089631971 0.0 0.0 0.0 16.28999089631971 0.0 0.0 0.0 34.642051614445585" Properties=species:S:1:pos:R:3:initial_magmoms:R:1 pbc="T T T"
Si      -1.61955899      -0.59792445       1.63701106       0.00000000
Si       1.12853862       1.73729592       1.19567108       0.00000000
Si      -1.04515730       0.60437529      -2.12366288       0.00000000
Si       1.77029946      -1.62544878      -0.50369571       0.00000000
Si      -2.86266518      -2.26870830       0.51699827       0.00000000
Si       0.87485119       1.75643667      -3.14747464       0.00000000
Si       3.06711378       2.21208426      -0.09879919       0.00000000
Si      -0.40587187      -1.65050280       3.44920708       0.00000000
Si       0.73084596      -3.54116907      -1.37799230       0.00000000
Si       2.84157873      -2.09227131       1.60167615       0.00000000
