10
Lattice="16.28999089631971 0.0 0.0 0.0 16.28999089631971 0.0 0.0 0.0 34.642051614445585" Properties=species:S:1:pos:R:3:initial_magmoms:R:1 pbc="T T T"
Si      -1.03945350      -1.91572029      -0.87429659       0.00000000
Si       1.07127927      -0.46682253       2.10537186       0.00000000
Si       1.36117611       0.46213101      -1.95041788       0.00000000
Si      -1.77029946       1.62544878       0.50369571       0.00000000
Si       1.27086435       2.85239529      -1.77059089       0.00000000
Si      -2.95589285      -2.26968570       0.35709047       0.00000000
Si      -1.91146697      -1.20612789      -3.00364076       0.00000000
Si      -0.56259144      -1.66548960       3.37067351       0.00000000
Si      -0.64176084       3.36274470       1.69936679       0.00000000
Si       0.71571744      -3.59276602      -1.09309591       0.00000000
