10
Lattice="16.28999089631971 0.0 0.0 0.0 16.28999089631971 0.0 0.0 0.0 34.642051614445585" Properties=species:S:1:pos:R:3:initial_magmoms:R:1 pbc="T T T"
Si       1.10628322       1.62610038       1.26128316       0.00000000
Si      -1.21772704      -1.46222298       1.36264586       0.00000000
Si       1.61357989      -1.64043558      -0.58222929       0.00000000
Si      -1.21368712       1.05257835      -1.81219602       0.00000000
Si      -0.76768321       2.77622325       2.03688449       0.00000000
Si      -1.56887428      -3.22322085      -0.15533505       0.00000000
Si       0.22076697      -3.20125867      -1.67161849       0.00000000
Si       3.24745060      -0.44176851      -1.84753093       0.00000000
Si       2.48100610       2.91529098      -0.11435348       0.00000000
Si       0.00212747      -1.88590959       3.34670119       0.00000000
