10
Lattice="16.28999089631971 0.0 0.0 0.0 16.28999089631971 0.0 0.0 0.0 34.642051614445585" Properties=species:S:1:pos:R:3:initial_magmoms:R:1 pbc="T T T"
Si      -1.35668717      -1.35725022       1.35682599       0.00000000
Si      -1.35743651       1.35749457      -1.35734562       0.00000000
Si       1.35790679      -1.35777150      -1.35703385       0.00000000
Si       1.35825214       1.35770634       1.35717241       0.00000000
Si       2.71443537      -0.00169416      -2.71444876       0.00000000
Si      -0.00030647       2.71467963      -2.71465661       0.00000000
Si      -0.00379858      -2.71586880       2.71382520       0.00000000
Si      -2.71445867      -2.71526607      -0.00013857       0.00000000
Si       2.71560825       2.71445157      -0.00027714       0.00000000
Si      -2.71449125      -0.00068418       2.71559194       0.00000000
