10
Lattice="16.28999089631971 0.0 0.0 0.0 16.28999089631971 0.0 0.0 0.0 34.642051614445585" Properties=species:S:1:pos:R:3:initial_magmoms:R:1 pbc="T T T"
Si       0.49410828       1.70036649      -1.59776160       0.00000000
Si       0.61025598       1.59192396       1.75600658       0.00000000
Si      -1.93283131      -0.87920388      -1.23221846       0.00000000
Si       1.61842779      -1.89262107      -0.00862588       0.00000000
Si      -0.59978477      -1.14378606       3.01656226       0.00000000
Si      -1.27639643       1.10324025       3.09138913       0.00000000
Si       1.90094526       0.45732546      -2.94835202       0.00000000
Si       3.28261419      -0.68738913      -1.27451643       0.00000000
Si       2.25720756       2.94515055      -0.30304884       0.00000000
Si      -0.83619339      -2.23855551      -2.93310951       0.00000000
