10
Lattice="16.28999089631971 0.0 0.0 0.0 16.28999089631971 0.0 0.0 0.0 34.642051614445585" Properties=species:S:1:pos:R:3:initial_magmoms:R:1 pbc="T T T"
Si      -0.23274175      -1.29021687      -2.00806229       0.00000000
Si      -1.71322323      -0.45183573       1.64619121       0.00000000
Si       2.24527025      -0.72101169       0.59837249       0.00000000
Si      -0.32640436       2.33600229      -0.60578590       0.00000000
Si       2.44068509       0.60277887       2.49066098       0.00000000
Si      -0.57836342      -1.77546339       3.16098505       0.00000000
Si      -3.50948895      -1.42408809       0.42893812       0.00000000
Si       1.65391067      -0.80153316      -3.34344484       0.00000000
Si      -2.92995591       0.98557758      -2.31557995       0.00000000
Si       1.75684718       3.43749951      -0.23463075       0.00000000
