10
Lattice="16.28999089631971 0.0 0.0 0.0 16.28999089631971 0.0 0.0 0.0 34.642051614445585" Properties=species:S:1:pos:R:3:initial_magmoms:R:1 pbc="T T T"
Si      -1.13485981       1.32362766      -1.51479384       0.00000000
Si       1.62014476       1.38898314       0.94791099       0.00000000
Si       1.27592077      -1.78092054      -0.90072849       0.00000000
Si      -1.47942589      -0.80993880       1.68474784       0.00000000
Si       2.22251638      -2.25342828       1.23845404       0.00000000
Si      -2.73139384      -2.14547445       0.21166305       0.00000000
Si       2.53705999      -0.17260884       2.42671171       0.00000000
Si       0.57836342       1.77546339      -3.16098505       0.00000000
Si      -2.15972887       3.03624423      -0.07995390       0.00000000
Si       3.01904851       2.37824226      -0.67032407       0.00000000
