10
Lattice="16.28999089631971 0.0 0.0 0.0 16.28999089631971 0.0 0.0 0.0 34.642051614445585" Properties=species:S:1:pos:R:3:initial_magmoms:R:1 pbc="T T T"
Si       1.32709743       1.36218609       1.35831560       0.00000000
Si       1.35237951      -1.35729909      -1.36025556       0.00000000
Si      -1.36114842       1.35913986      -1.35789990       0.00000000
Si      -1.36929830      -1.36303317       1.37089067       0.00000000
Si      -0.28359261       2.44128456       2.78553428       0.00000000
Si       2.69120574      -0.00718389       2.61921770       0.00000000
Si       2.71094922       0.00009774      -2.71697763       0.00000000
Si       2.71174743      -2.71696023       0.00197460       0.00000000
Si       2.70936909       2.72145627      -0.00072748       0.00000000
Si      -0.00358380      -2.71497285      -2.71680442       0.00000000
