10
Lattice="16.28999089631971 0.0 0.0 0.0 16.28999089631971 0.0 0.0 0.0 34.385447050020396" Properties=species:S:1:pos:R:3:initial_magmoms:R:1 pbc="T T T"
Si      -0.83290770      -2.21359923      -0.25455561       0.00000000
Si       0.92504394       0.54297828      -2.22597754       0.00000000
Si      -2.19968594       1.30227147       0.05635778       0.00000000
Si       1.68060672       0.54112122       1.98371272       0.00000000
Si      -0.86135981       3.29477697       0.15590370       0.00000000
Si       0.67974912       2.91243438      -1.71831052       0.00000000
Si      -1.41509275      -2.75564898       2.17030889       0.00000000
Si      -3.08854232      -2.08881783      -1.30740420       0.00000000
Si      -0.48252609      -0.44297397      -3.96110256       0.00000000
Si       0.74406204      -3.42739971      -1.96217225       0.00000000
