10
Lattice="16.28999089631971 0.0 0.0 0.0 16.28999089631971 0.0 0.0 0.0 34.385447050020396" Properties=species:S:1:pos:R:3:initial_magmoms:R:1 pbc="T T T"
Si       1.34715042       1.36141676       1.36859657       0.00000000
Si      -1.37140623      -1.35134458       1.36505487       0.00000000
Si      -1.10855079       1.41864842      -1.54490118       0.00000000
Si       1.44634023      -1.38423409      -1.28915927       0.00000000
Si      -2.70358614       2.71340857      -0.01970975       0.00000000
Si      -2.16024948      -0.08080603      -3.16228833       0.00000000
Si       2.70021411       2.72111374      -0.00075992       0.00000000
Si       2.70469386       0.00429745       2.72726950       0.00000000
Si      -0.00835677      -2.71168990       2.72702880       0.00000000
Si      -0.01031157       2.71829557       2.72682249       0.00000000
