10
Lattice="16.28999089631971 0.0 0.0 0.0 16.28999089631971 0.0 0.0 0.0 34.385447050020396" Properties=species:S:1:pos:R:3:initial_magmoms:R:1 pbc="T T T"
Si       1.35798327       1.35897696       1.35588771       0.00000000
Si       1.35736425      -1.35868048      -1.35750382       0.00000000
Si      -1.35782037       1.35790182      -1.35791645       0.00000000
Si      -1.35853713      -1.35881243       1.35726312       0.00000000
Si      -0.00083079      -2.71323000      -2.71291013       0.00000000
Si       0.00068418       2.71173114       2.71631429       0.00000000
Si      -2.71498914       2.71477737      -0.00044701       0.00000000
Si       2.71480995      -2.71509973      -0.00051578       0.00000000
Si       2.71482624       2.71511946      -0.00079087       0.00000000
Si      -2.71508688      -2.71498067      -0.00065332       0.00000000
