10
Lattice="16.28999089631971 0.0 0.0 0.0 16.28999089631971 0.0 0.0 0.0 34.385447050020396" Properties=species:S:1:pos:R:3:initial_magmoms:R:1 pbc="T T T"
Si       1.36008468       1.34509788      -1.35314375       0.00000000
Si       1.35483930      -1.35617508       1.35306810       0.00000000
Si      -1.36212093      -1.35879777      -1.35272768       0.00000000
Si      -1.36166481       1.35692442       1.35513123       0.00000000
Si       2.47997331      -0.13597263      -2.82218027       0.00000000
Si      -2.54779510       0.09598068      -2.76379031       0.00000000
Si      -2.71203413       2.70580158      -0.00089402       0.00000000
Si       2.71176372      -0.00037467       2.71088139       0.00000000
Si      -0.00265527       2.71301805       2.71122524       0.00000000
Si      -0.00293220      -2.71529865       2.71101893       0.00000000
