10
Lattice="16.28999089631971 0.0 0.0 0.0 16.28999089631971 0.0 0.0 0.0 34.385447050020396" Properties=species:S:1:pos:R:3:initial_magmoms:R:1 pbc="T T T"
Si      -1.01801097       1.98923706      -0.43394458       0.00000000
Si      -1.26190485      -1.88735940      -0.23333977       0.00000000
Si       1.50395796       0.18274122       1.76865084       0.00000000
Si      -0.62089335       0.11850975      -2.34780525       0.00000000
Si       3.31560144      -0.55964295       0.26700315       0.00000000
Si      -3.29826888      -1.35068535       0.85485708       0.00000000
Si       0.26401203      -0.22051773       3.75695604       0.00000000
Si      -0.12632895      -3.77028955       0.73072554       0.00000000
Si       2.05293096      -3.34601487      -0.05040909       0.00000000
Si      -1.06456779       3.52259847       1.40186107       0.00000000
