10
Lattice="16.28999089631971 0.0 0.0 0.0 16.28999089631971 0.0 0.0 0.0 34.385447050020396" Properties=species:S:1:pos:R:3:initial_magmoms:R:1 pbc="T T T"
Si      -1.59847254       0.41557419      -1.65108693       0.00000000
Si      -1.01473668      -0.74365479       2.01038067       0.00000000
Si       0.81145377       2.14829262       0.76177562       0.00000000
Si       1.10498328      -2.03431149      -0.76762115       0.00000000
Si      -2.82150945      -1.52930520      -0.97795705       0.00000000
Si       1.12062168      -1.24882398       3.10067504       0.00000000
Si       1.48634847      -2.99690388       1.36328058       0.00000000
Si       1.86797430       0.44663922      -3.22233081       0.00000000
Si      -0.47048778       0.15068250      -3.78446442       0.00000000
Si      -2.91907026      -2.09284146       1.36221463       0.00000000
