10
Lattice="16.28999089631971 0.0 0.0 0.0 16.28999089631971 0.0 0.0 0.0 34.385447050020396" Properties=species:S:1:pos:R:3:initial_magmoms:R:1 pbc="T T T"
Si      -1.67041570       0.83360817      -1.38037016       0.00000000
Si       0.44945739      -1.79764127      -1.44903793       0.00000000
Si      -0.15789897      -1.15989361       2.07605691       0.00000000
Si       1.87209567       1.47872475      -0.00488274       0.00000000
Si       2.41696359      -2.18374685      -0.33377972       0.00000000
Si      -0.43218999       0.82547946       3.32304585       0.00000000
Si       3.33769068      -0.09932665      -0.92359362       0.00000000
Si      -2.77498521      -1.27475114      -1.67955810       0.00000000
Si       1.12449870       2.75794587      -1.81826907       0.00000000
Si       2.04766929      -2.06140895       1.98861467       0.00000000
