10
Lattice="16.28999089631971 0.0 0.0 0.0 16.28999089631971 0.0 0.0 0.0 34.385447050020396" Properties=species:S:1:pos:R:3:initial_magmoms:R:1 pbc="T T T"
Si       0.74784132      -1.91766958       1.16243163       0.00000000
Si      -0.47276186      -0.53153944      -2.31483100       0.00000000
Si      -1.97707397       0.80684370       1.17559439       0.00000000
Si       1.80195093       1.93362300      -0.14116953       0.00000000
Si       2.08487565      -0.55970322       2.54763295       0.00000000
Si      -0.64858961       2.17466613       2.55138097       0.00000000
Si      -1.20002891       1.61896536      -2.98730757       0.00000000
Si       3.45455514       0.80260830       1.15636948       0.00000000
Si       0.71575002       3.52263105       1.19624630       0.00000000
Si       2.06920467      -3.28519520      -0.48702199       0.00000000
