10
Lattice="16.28999089631971 0.0 0.0 0.0 16.28999089631971 0.0 0.0 0.0 34.385447050020396" Properties=species:S:1:pos:R:3:initial_magmoms:R:1 pbc="T T T"
Si       1.36023129       1.35264015       1.36533339       0.00000000
Si      -1.35306369      -1.35969698       1.36935649       0.00000000
Si       1.38331422      -1.29923827      -1.40903044       0.00000000
Si      -1.12673043       1.49465637      -1.45804005       0.00000000
Si       0.74357334       2.37149820      -2.62809288       0.00000000
Si      -2.16008658      -0.08588088      -2.94383402       0.00000000
Si       2.33140851       0.55965924      -2.77032496       0.00000000
Si      -2.70021411      -2.72111374       0.00075992       0.00000000
Si      -2.70935280       2.71337643      -0.02319300       0.00000000
Si      -2.71052568      -0.00281817       2.72758241       0.00000000
