10
Lattice="16.28999089631971 0.0 0.0 0.0 16.28999089631971 0.0 0.0 0.0 34.385447050020396" Properties=species:S:1:pos:R:3:initial_magmoms:R:1 pbc="T T T"
Si       1.35690813      -1.35761023      -1.35736628       0.00000000
Si      -1.35795069       1.35728280      -1.35771014       0.00000000
Si      -1.35729909      -1.35779431       1.35832907       0.00000000
Si       1.35798327       1.35940050       1.35709120       0.00000000
Si       2.71396287      -2.71448149      -0.00034385       0.00000000
Si      -0.00006516      -2.71466601      -2.71387293       0.00000000
Si       2.71248048      -0.00070047       2.71631429       0.00000000
Si       2.71435383       2.71498914      -0.00030947       0.00000000
Si      -2.71507059      -0.00066789      -2.71431994       0.00000000
Si       0.00363267       2.71256193       2.71710516       0.00000000
