10
Lattice="16.28999089631971 0.0 0.0 0.0 16.28999089631971 0.0 0.0 0.0 34.385447050020396" Properties=species:S:1:pos:R:3:initial_magmoms:R:1 pbc="T T T"
Si      -1.39751910      -1.38900987      -1.40495577       0.00000000
Si       1.64929734       1.54536388      -0.87779218       0.00000000
Si       1.24682031      -1.23627483       1.72052670       0.00000000
Si      -1.29803607       1.72095379       1.39519029       0.00000000
Si      -0.83650779       2.70586348      -0.61491529       0.00000000
Si       2.24536473       0.50759640       2.92999387       0.00000000
Si      -2.48982876      -2.84711148       0.15872331       0.00000000
Si      -0.39182337      -2.29851315       3.05062497       0.00000000
Si      -0.30576330      -2.06541954      -3.51543253       0.00000000
Si      -2.94671439       0.50436935       2.79488306       0.00000000
