10
Lattice="16.28999089631971 0.0 0.0 0.0 16.28999089631971 0.0 0.0 0.0 34.385447050020396" Properties=species:S:1:pos:R:3:initial_magmoms:R:1 pbc="T T T"
Si      -2.24163173       0.63056961      -0.30355490       0.00000000
Si       0.72726705      -2.15050480       0.67247656       0.00000000
Si      -0.52553658       1.80546957       1.51523240       0.00000000
Si       1.32194327       0.87708618      -1.84261398       0.00000000
Si       0.96840140      -1.37686338      -2.81806089       0.00000000
Si      -2.08128926       0.63705303       2.84324966       0.00000000
Si       1.20002891      -1.61896536       2.98730757       0.00000000
Si       2.26837598      -2.53284739      -1.20173766       0.00000000
Si      -1.52389433       3.36854394       0.05254099       0.00000000
Si      -0.27343580       2.28460734      -2.92393374       0.00000000
