10
Lattice="16.28999089631971 0.0 0.0 0.0 16.28999089631971 0.0 0.0 0.0 34.385447050020396" Properties=species:S:1:pos:R:3:initial_magmoms:R:1 pbc="T T T"
Si       0.92776437       1.06427457       1.85506152       0.00000000
Si       0.62641566       1.28428731      -1.86936587       0.00000000
Si       1.00949130      -2.17018638      -0.15019572       0.00000000
Si      -2.13855120       1.07988039       0.16247133       0.00000000
Si      -1.38992796       2.47650354      -1.79602167       0.00000000
Si      -3.37475043      -0.87894324       0.44704545       0.00000000
Si       2.95432182      -1.75319496       1.18953082       0.00000000
Si       1.79885583      -2.13025959      -2.53816319       0.00000000
Si       2.14257483       2.95225299      -1.06082602       0.00000000
Si      -2.61381195      -2.37319236      -1.40976973       0.00000000
