10
Lattice="16.28999089631971 0.0 0.0 0.0 16.28999089631971 0.0 0.0 0.0 34.385447050020396" Properties=species:S:1:pos:R:3:initial_magmoms:R:1 pbc="T T T"
Si       1.42407180      -1.24729272      -1.45154807       0.00000000
Si       1.00927953       1.83721878       1.16876200       0.00000000
Si      -1.29837816       1.44829503      -1.45980058       0.00000000
Si      -1.23733953      -1.51705512       1.55491078       0.00000000
Si      -2.74149297      -2.59582779       0.02747399       0.00000000
Si      -2.62466109       2.77609293      -0.01076265       0.00000000
Si       0.06325407      -2.60525970      -2.82394080       0.00000000
Si       2.90778129      -2.56634289      -0.09366601       0.00000000
Si      -2.65271247       0.11350872      -2.83040527       0.00000000
Si      -0.77706558       3.57136651       1.30905470       0.00000000
