10
Lattice="16.28999089631971 0.0 0.0 0.0 16.28999089631971 0.0 0.0 0.0 34.385447050020396" Properties=species:S:1:pos:R:3:initial_magmoms:R:1 pbc="T T T"
Si       1.32628293      -1.32779790      -1.44903793       0.00000000
Si       1.84759551       0.79527358       1.31981735       0.00000000
Si      -1.64470356      -1.28029626       1.24901768       0.00000000
Si      -1.38987909       1.41507713      -1.41778155       0.00000000
Si       2.62466109      -2.77609293       0.01076265       0.00000000
Si       2.71363707       2.70626489       0.04411655       0.00000000
Si      -0.02805138      -2.66258421      -2.81964262       0.00000000
Si       2.68889256       0.05095512      -2.81685740       0.00000000
Si      -2.73878883       0.05005155      -2.81169958       0.00000000
Si       3.63394062      -0.93887415       1.17952465       0.00000000
