10
Lattice="16.28999089631971 0.0 0.0 0.0 16.28999089631971 0.0 0.0 0.0 34.385447050020396" Properties=species:S:1:pos:R:3:initial_magmoms:R:1 pbc="T T T"
Si       1.48235742       1.38759849       1.18994345       0.00000000
Si      -0.60375627       0.36271314      -2.26624293       0.00000000
Si       1.16002719      -2.10699747      -0.11340327       0.00000000
Si      -1.91076813       0.74398059       1.31373112       0.00000000
Si      -1.81856673      -1.52526528       0.64964461       0.00000000
Si       1.52998938       0.20211003      -3.15142798       0.00000000
Si       3.47030757       0.70944579       0.13406893       0.00000000
Si       0.21950775       3.37167881       1.18519825       0.00000000
Si       3.14620173      -1.53055953       1.02087011       0.00000000
Si       2.67310755       1.79167066      -1.79753463       0.00000000
