10
Lattice="16.28999089631971 0.0 0.0 0.0 16.28999089631971 0.0 0.0 0.0 34.385447050020396" Properties=species:S:1:pos:R:3:initial_magmoms:R:1 pbc="T T T"
Si       0.05761773      -1.74824280       1.56433240       0.00000000
Si       0.96866856      -1.09590975      -1.84075717       0.00000000
Si      -2.36045358       0.43808697      -0.25001673       0.00000000
Si       1.45784097       1.63475037       1.12110374       0.00000000
Si      -2.76576507       0.91372239       2.02722955       0.00000000
Si      -1.58268753      -0.78284853       3.23082402       0.00000000
Si       2.25482922      -1.69170021       2.46475022       0.00000000
Si       3.21965334      -0.31540698      -1.89058171       0.00000000
Si       0.01935252      -0.12465108      -3.78663070       0.00000000
Si       3.26500470       0.46731123       2.07127733       0.00000000
