10
Lattice="16.28999089631971 0.0 0.0 0.0 16.28999089631971 0.0 0.0 0.0 34.385447050020396" Properties=species:S:1:pos:R:3:initial_magmoms:R:1 pbc="T T T"
Si       1.35345931      -1.34808014       1.36008273       0.00000000
Si      -1.33783254      -1.34368132      -1.39227441       0.00000000
Si      -1.35711990       1.36804072       1.35956695       0.00000000
Si       1.37521974       1.36383790      -1.36615864       0.00000000
Si       2.70995946      -2.70453163      -0.00429818       0.00000000
Si      -0.00325800      -2.70795253       2.71765533       0.00000000
Si      -2.71650411      -2.70964669       0.00240698       0.00000000
Si       2.71283301       0.00798699       2.71820549       0.00000000
Si       2.70370410       2.73166033       0.00962793       0.00000000
Si      -2.71788876       0.00754716       2.71810234       0.00000000
