10
Lattice="16.28999089631971 0.0 0.0 0.0 16.28999089631971 0.0 0.0 0.0 34.385447050020396" Properties=species:S:1:pos:R:3:initial_magmoms:R:1 pbc="T T T"
Si       1.80443420       1.00605411       1.10655869       0.00000000
Si      -1.28984220       1.33692030      -1.43941000       0.00000000
Si      -1.85666904      -0.81404388       1.22652958       0.00000000
Si       1.38028984      -1.38168685      -1.44291732       0.00000000
Si      -2.66478336       2.66058054      -0.03775524       0.00000000
Si      -1.03122216      -1.68065233       3.22525358       0.00000000
Si       3.45415508      -0.88360218       1.30616632       0.00000000
Si      -2.66429466      -2.71121996      -0.04095309       0.00000000
Si       2.66953094      -2.73147008      -0.07430699       0.00000000
Si       2.74239611       2.69444745      -0.19248984       0.00000000
