10
Lattice="16.28999089631971 0.0 0.0 0.0 16.28999089631971 0.0 0.0 0.0 34.385447050020396" Properties=species:S:1:pos:R:3:initial_magmoms:R:1 pbc="T T T"
Si       0.82544688      -0.86660845       1.99872400       0.00000000
Si       1.85666904       0.81404388      -1.22652958       0.00000000
Si      -0.80762562      -1.89717608      -1.26748267       0.00000000
Si      -1.79686845       1.86919605       0.17134278       0.00000000
Si       0.56682684       2.15096418      -2.66593959       0.00000000
Si      -2.16124317      -0.57524877      -2.66724623       0.00000000
Si      -3.49280406       0.72246150      -1.16501398       0.00000000
Si      -0.80811432       3.47462442      -1.26428482       0.00000000
Si       2.45033433       0.65410866       2.83955180       0.00000000
Si      -2.57250051      -2.92267754      -0.02960589       0.00000000
