10
Lattice="16.28999089631971 0.0 0.0 0.0 16.28999089631971 0.0 0.0 0.0 34.385447050020396" Properties=species:S:1:pos:R:3:initial_magmoms:R:1 pbc="T T T"
Si       2.09320703      -0.42047748      -0.94240247       0.00000000
Si      -0.11396484       0.17589128       2.32854939       0.00000000
Si      -1.55079171      -1.71574166      -0.39168485       0.00000000
Si      -0.84201381       2.19614612      -0.39684267       0.00000000
Si      -2.53109133      -0.00563308       2.39477580       0.00000000
Si      -2.68190415       1.98392000       1.08885017       0.00000000
Si      -2.12646402      -1.14013451      -2.55614679       0.00000000
Si       3.19777654       1.68788183      -0.64321453       0.00000000
Si       1.79184040      -0.51914438      -3.25877941       0.00000000
Si      -0.56948211      -3.82202237      -0.39220063       0.00000000
