10
Lattice="16.28999089631971 0.0 0.0 0.0 16.28999089631971 0.0 0.0 0.0 34.385447050020396" Properties=species:S:1:pos:R:3:initial_magmoms:R:1 pbc="T T T"
Si      -1.58783517       1.81183896       0.14223208       0.00000000
Si       1.81890882       0.88604568       1.45094774       0.00000000
Si      -0.94809429      -1.85889751       1.36129452       0.00000000
Si       1.65856635       0.87956226      -1.69585681       0.00000000
Si      -1.54416168      -0.82113003      -2.44649154       0.00000000
Si      -2.08803591       1.56810798      -2.14861025       0.00000000
Si       0.39498363       2.18067714       2.77586446       0.00000000
Si      -2.33140851      -0.55965924       2.77032496       0.00000000
Si      -3.45813894       0.93499713       1.31228491       0.00000000
Si       3.37466151       2.05446222       0.12293049       0.00000000
