10
Lattice="16.28999089631971 0.0 0.0 0.0 16.28999089631971 0.0 0.0 0.0 34.385447050020396" Properties=species:S:1:pos:R:3:initial_magmoms:R:1 pbc="T T T"
Si      -1.42392519       1.29463146       1.32491672       0.00000000
Si       1.30424421      -1.44917469       1.31965230       0.00000000
Si       1.55575269       1.16841654      -1.32801725       0.00000000
Si      -1.81890882      -0.88604568      -1.45094774       0.00000000
Si      -0.16034247      -0.00648342      -3.14680455       0.00000000
Si       2.08128926      -0.63705303      -2.84324966       0.00000000
Si      -0.07587882       2.62005102       2.69024667       0.00000000
Si      -3.40674399       0.92579328      -1.30871566       0.00000000
Si       2.63272857      -0.08135226       2.69543888       0.00000000
Si      -2.50310511       2.87323020      -0.18882779       0.00000000
