10
Lattice="16.28999089631971 0.0 0.0 0.0 16.28999089631971 0.0 0.0 0.0 34.385447050020396" Properties=species:S:1:pos:R:3:initial_magmoms:R:1 pbc="T T T"
Si       1.34804637       1.32541956       1.36532995       0.00000000
Si       1.42392519      -1.29463146      -1.32491672       0.00000000
Si      -1.36616085      -1.38769623       1.35979389       0.00000000
Si      -1.07917992       1.57859874      -1.51374450       0.00000000
Si      -1.98281880      -0.36883818      -2.63363238       0.00000000
Si      -0.39498363      -2.18067714      -2.77586446       0.00000000
Si      -2.71075374       2.68856676      -0.02508076       0.00000000
Si      -0.00469152       2.68830612       2.72059872       0.00000000
Si       2.71329909       2.69964396      -0.01350661       0.00000000
Si       2.70989037      -0.02632464       2.72451867       0.00000000
