10
Lattice="16.28999089631971 0.0 0.0 0.0 16.28999089631971 0.0 0.0 0.0 34.385447050020396" Properties=species:S:1:pos:R:3:initial_magmoms:R:1 pbc="T T T"
Si       1.34394992       1.34517933      -1.36654720       0.00000000
Si       1.28984220      -1.33692030       1.43941000       0.00000000
Si      -1.37494116       1.32366024       1.40165476       0.00000000
Si      -1.37288862      -1.37046141      -1.36087360       0.00000000
Si      -0.56682684      -2.15096418       2.66593959       0.00000000
Si      -2.36369529      -0.28176813       2.83728236       0.00000000
Si       2.66537862       2.70176166      -0.02070005       0.00000000
Si       2.67013204      -2.71860715      -0.00350732       0.00000000
Si       2.69998672      -0.01115865      -2.72040616       0.00000000
Si      -0.01202202       2.70210375      -2.72033739       0.00000000
