10
Lattice="16.28999089631971 0.0 0.0 0.0 16.28999089631971 0.0 0.0 0.0 34.385447050020396" Properties=species:S:1:pos:R:3:initial_magmoms:R:1 pbc="T T T"
Si      -1.35603680       1.35633798       1.35385896       0.00000000
Si      -1.35555538      -1.35863487      -1.35698804       0.00000000
Si       1.35950476       1.35624024      -1.35654103       0.00000000
Si       1.35890203      -1.35855342       1.36169885       0.00000000
Si      -0.03460811       2.71292031       2.69970611       0.00000000
Si      -2.69998672       0.01115865       2.72040616       0.00000000
Si      -0.02985468      -2.70744850       2.71689885       0.00000000
Si      -2.71200874       2.71326240       0.00006877       0.00000000
Si      -2.71292098      -0.00030951      -2.71349468       0.00000000
Si       0.00176258       2.71406061      -2.71260066       0.00000000
