10
Lattice="16.28999089631971 0.0 0.0 0.0 16.28999089631971 0.0 0.0 0.0 34.385447050020396" Properties=species:S:1:pos:R:3:initial_magmoms:R:1 pbc="T T T"
Si      -2.38031109       0.02985957       0.05364133       0.00000000
Si       0.70470540       1.42109073       1.80485874       0.00000000
Si       0.62907093      -2.06843904       1.06282038       0.00000000
Si       0.90984537       0.31073175      -2.26978463       0.00000000
Si       2.77758739       2.22228180       1.01358039       0.00000000
Si      -0.19036494      -1.94988042       3.24609117       0.00000000
Si       0.91660572       0.02707398       3.75351750       0.00000000
Si      -3.24628749      -1.72739160      -1.24709209       0.00000000
Si      -0.09469377      -1.19369862      -3.86038753       0.00000000
Si      -3.51772776       1.93341123      -0.77222880       0.00000000
