10
Lattice="16.28999089631971 0.0 0.0 0.0 16.28999089631971 0.0 0.0 0.0 34.385447050020396" Properties=species:S:1:pos:R:3:initial_magmoms:R:1 pbc="T T T"
Si      -1.10697066      -1.97695440      -0.50742633       0.00000000
Si      -0.99746928       1.18820889       1.72800722       0.00000000
Si       1.96684387      -0.94670964       0.91867650       0.00000000
Si      -0.21190032       1.39401675      -1.94865876       0.00000000
Si      -0.28753479      -2.09551302      -2.69069712       0.00000000
Si      -1.50908931       3.14779815      -0.85664512       0.00000000
Si       3.56838056       0.67680063       0.21745369       0.00000000
Si       1.45960585      -1.25936361       3.22931106       0.00000000
Si      -2.88754911       2.27305773       0.87851428       0.00000000
Si       0.72487242       2.44024200       2.80035237       0.00000000
