10
Lattice="16.28999089631971 0.0 0.0 0.0 16.28999089631971 0.0 0.0 0.0 34.385447050020396" Properties=species:S:1:pos:R:3:initial_magmoms:R:1 pbc="T T T"
Si       1.35770634      -1.35715248      -1.35685050       0.00000000
Si      -1.35739683       1.35894438      -1.35643787       0.00000000
Si       1.35793440       1.35679410       1.35832907       0.00000000
Si      -1.35816246      -1.35871632       1.35815715       0.00000000
Si       0.00125433       2.71536381      -2.71335714       0.00000000
Si      -2.71471221       0.00332316      -2.71411362       0.00000000
Si      -2.71454931      -2.71507059       0.00000000       0.00000000
Si       0.00275301      -2.71402803      -2.71559220       0.00000000
Si       2.71551291      -2.71492398      -0.00037824       0.00000000
Si       2.71514411       2.71541268       0.00013754       0.00000000
