10
Lattice="16.28999089631971 0.0 0.0 0.0 16.28999089631971 0.0 0.0 0.0 34.385447050020396" Properties=species:S:1:pos:R:3:initial_magmoms:R:1 pbc="T T T"
Si      -1.20969540       1.58848677      -1.23117162       0.00000000
Si      -1.37845980      -0.87474042       1.73515940       0.00000000
Si       1.67413959       1.46276055       0.89278425       0.00000000
Si       1.29718899      -1.75378140      -1.09201364       0.00000000
Si       0.51162003      -1.95958926       2.58465234       0.00000000
Si       2.20667598       2.35976940      -1.19486057       0.00000000
Si       1.50908931      -3.14779815       0.85664512       0.00000000
Si      -3.04864092       0.39482073      -2.04483491       0.00000000
Si      -1.53849276       0.78007923       3.40288890       0.00000000
Si      -2.39547708       2.96715834       0.30637450       0.00000000
