10
Lattice="16.28999089631971 0.0 0.0 0.0 16.28999089631971 0.0 0.0 0.0 34.385447050020396" Properties=species:S:1:pos:R:3:initial_magmoms:R:1 pbc="T T T"
Si      -0.39188201      -2.13980553       0.89701366       0.00000000
Si       2.12959659       0.13279608       1.11873114       0.00000000
Si       0.81888690      -0.97381620      -2.06250904       0.00000000
Si      -1.66508465       1.81374489       0.30403629       0.00000000
Si       1.66850814      -3.23215103       0.36623960       0.00000000
Si       3.31120803       1.55330037      -0.23667516       0.00000000
Si       1.75684881       0.71457714      -3.36155757       0.00000000
Si      -0.98554730      -1.97987031      -3.16906773       0.00000000
Si      -2.87803805       1.12128957       2.32810238       0.00000000
Si      -0.61836677      -2.10395124       3.20572263       0.00000000
