10
Lattice="16.28999089631971 0.0 0.0 0.0 16.28999089631971 0.0 0.0 0.0 34.385447050020396" Properties=species:S:1:pos:R:3:initial_magmoms:R:1 pbc="T T T"
Si      -1.35488817       1.35392706      -1.36008273       0.00000000
Si       1.36148562       1.34996859       1.36757876       0.00000000
Si       1.36086660      -1.36244673      -1.35901678       0.00000000
Si      -1.35063648      -1.36246302       1.37603759       0.00000000
Si       2.69394246      -0.10710675       2.67333246       0.00000000
Si       0.13307301      -2.68151319       2.73391965       0.00000000
Si      -2.71047681       2.71187775      -0.00003439       0.00000000
Si       0.00249237       2.71144777      -2.71751778       0.00000000
Si      -2.71238274      -0.00330687      -2.71744901       0.00000000
Si      -2.71145421      -2.72043000       0.00364486       0.00000000
