10
Lattice="16.28999089631971 0.0 0.0 0.0 16.28999089631971 0.0 0.0 0.0 34.385447050020396" Properties=species:S:1:pos:R:3:initial_magmoms:R:1 pbc="T T T"
Si       1.98617454       0.57643794       1.13427338       0.00000000
Si      -1.16002719       2.10699747       0.11340327       0.00000000
Si      -0.95203647      -2.23573734       0.09751718       0.00000000
Si       0.82722249       0.08099388      -2.31132227       0.00000000
Si      -2.97859392       0.58173219       0.76304788       0.00000000
Si       0.61924806      -3.17655000      -1.33535958       0.00000000
Si       2.31028038       2.81644326       0.24747220       0.00000000
Si      -1.76378346       2.46971061      -2.15283966       0.00000000
Si       0.32233023       3.49459596       1.30334671       0.00000000
Si       3.59153775      -1.05699294       0.76830886       0.00000000
