10
Lattice="16.28999089631971 0.0 0.0 0.0 16.28999089631971 0.0 0.0 0.0 34.385447050020396" Properties=species:S:1:pos:R:3:initial_magmoms:R:1 pbc="T T T"
Si       0.16159680      -0.67847850      -2.20414277       0.00000000
Si      -1.45508144       1.80615375       0.40911828       0.00000000
Si       2.01842874       1.35365013       0.33543022       0.00000000
Si      -0.23651451      -2.13679188       1.21614517       0.00000000
Si       1.48418190      -1.10506473       2.72941516       0.00000000
Si      -0.63692271       2.28608973       2.58200466       0.00000000
Si       1.34716671      -2.76651441      -1.92469209       0.00000000
Si      -0.87104259       3.31762140      -1.41166093       0.00000000
Si       3.32061876      -0.06040332       1.65497249       0.00000000
Si      -0.03072294       0.33221826       3.81520502       0.00000000
