10
Lattice="16.28999089631971 0.0 0.0 0.0 16.28999089631971 0.0 0.0 0.0 34.385447050020396" Properties=species:S:1:pos:R:3:initial_magmoms:R:1 pbc="T T T"
Si       0.54165065      -1.91930409      -1.21476975       0.00000000
Si      -2.26989000       0.54537291      -0.45364746       0.00000000
Si       0.17165262      -0.53675550       2.31847445       0.00000000
Si       1.82166020       1.44231660      -0.56687880       0.00000000
Si       2.21206634      -2.75291226       0.16560041       0.00000000
Si      -2.08648089      -1.30411224       2.58190151       0.00000000
Si      -0.01551134       1.69417629       3.15572617       0.00000000
Si      -3.08932587       0.66393153       1.72962334       0.00000000
Si       1.61586863      -1.02669354      -3.16593865       0.00000000
Si       3.33656504       0.00503361      -1.65266867       0.00000000
