10
Lattice="16.28999089631971 0.0 0.0 0.0 16.28999089631971 0.0 0.0 0.0 34.385447050020396" Properties=species:S:1:pos:R:3:initial_magmoms:R:1 pbc="T T T"
Si       1.02152635      -1.59505164      -1.41007920       0.00000000
Si      -1.61394219       1.37894850      -1.09937213       0.00000000
Si      -0.67381371      -1.65985326       1.60291290       0.00000000
Si       2.06657872       1.20928815       0.48376912       0.00000000
Si       2.00726683       0.16200405      -2.61694030       0.00000000
Si      -1.81178424       2.65137669       0.83762996       0.00000000
Si       1.39424155      -1.72142946       2.63162289       0.00000000
Si       2.07654820       0.60281145       2.72962147       0.00000000
Si      -0.78412959      -2.56872123      -2.52461532       0.00000000
Si       3.08274892      -2.12594274       1.08190431       0.00000000
