10
Lattice="16.28999089631971 0.0 0.0 0.0 16.28999089631971 0.0 0.0 0.0 34.385447050020396" Properties=species:S:1:pos:R:3:initial_magmoms:R:1 pbc="T T T"
Si      -0.28313649      -2.38826061       0.21876034       0.00000000
Si       2.33065917      -0.14112027       0.63042314       0.00000000
Si      -0.28064412       0.84201381      -2.36001209       0.00000000
Si      -1.57696974       1.21380048       1.70761664       0.00000000
Si      -1.22658813       2.98442574      -1.99893031       0.00000000
Si       1.42713432      -3.43235187      -1.20256291       0.00000000
Si       3.51735309       1.77417648      -0.13651030       0.00000000
Si       3.33146790      -2.08316520      -0.55439687       0.00000000
Si       0.18098190       3.97037799      -0.26380530       0.00000000
Si      -2.50007680      -3.10995648      -0.29286102       0.00000000
