10
Lattice="16.28999089631971 0.0 0.0 0.0 16.28999089631971 0.0 0.0 0.0 34.385447050020396" Properties=species:S:1:pos:R:3:initial_magmoms:R:1 pbc="T T T"
Si      -1.34658027      -1.35347094      -1.38092033       0.00000000
Si       1.37024964       1.35919740      -1.37246150       0.00000000
Si       1.21194342      -1.51617546       1.41633736       0.00000000
Si      -1.44831132       1.37552304       1.34753204       0.00000000
Si       2.46433491       0.02884959       2.68825575       0.00000000
Si      -2.72365216      -0.13103676       2.57330514       0.00000000
Si      -2.70026298      -2.71847520      -0.03937136       0.00000000
Si       2.72041371      -2.70884781      -0.00945600       0.00000000
Si       2.71915938       2.72422298       0.02145653       0.00000000
Si      -2.70770914      -0.00008145      -2.73711750       0.00000000
