10
Lattice="16.28999089631971 0.0 0.0 0.0 16.28999089631971 0.0 0.0 0.0 34.385447050020396" Properties=species:S:1:pos:R:3:initial_magmoms:R:1 pbc="T T T"
Si       0.14765256       1.18946322      -1.99164059       0.00000000
Si      -1.97008721      -1.01991690      -0.77006252       0.00000000
Si      -0.11672762       1.46434068       1.86620241       0.00000000
Si       1.63680291      -1.78325001      -0.00577676       0.00000000
Si      -2.50262360      -1.91692575       1.31758230       0.00000000
Si       0.56643588      -0.76523904      -3.33136713       0.00000000
Si      -1.07569060      -2.29346910      -2.53173311       0.00000000
Si       2.57709429      -1.40484960      -2.19028543       0.00000000
Si       1.36884870       3.20881464       1.28605082       0.00000000
Si       0.40412232      -3.80918844       0.45371623       0.00000000
