10
Lattice="16.28999089631971 0.0 0.0 0.0 16.28999089631971 0.0 0.0 0.0 34.25627252547053" Properties=species:S:1:pos:R:3:initial_magmoms:R:1 pbc="T T T"
Si      -1.34601664      -1.36585155       1.38458792       0.00000000
Si       1.36192545       1.35394706       1.38410834       0.00000000
Si       1.34806266      -1.38956979      -1.37566416       0.00000000
Si      -1.44277598       1.37101898      -1.51059627       0.00000000
Si      -2.69951141       2.70639499       0.01647385       0.00000000
Si      -2.69497297      -2.71915959       0.04161454       0.00000000
Si       2.74062960       2.69139190       0.01353809       0.00000000
Si      -2.70521344      -0.00928744       2.74439142       0.00000000
Si       2.73476520      -2.71647174       0.02922062       0.00000000
Si       0.01006722       2.70698143       2.74548762       0.00000000
