10
Lattice="16.28999089631971 0.0 0.0 0.0 16.28999089631971 0.0 0.0 0.0 34.25627252547053" Properties=species:S:1:pos:R:3:initial_magmoms:R:1 pbc="T T T"
Si      -1.35739305      -1.35653346      -1.35682320       0.00000000
Si       1.35847523      -1.35645201       1.35654915       0.00000000
Si       1.35689510       1.35887922      -1.35692597       0.00000000
Si      -1.35810397       1.36251189       1.36011180       0.00000000
Si       0.01661580      -2.71141511       2.70974118       0.00000000
Si       2.71362404      -2.71182725       0.00188410       0.00000000
Si      -0.00041539      -2.71346602      -2.71440004       0.00000000
Si       2.71435709       0.00149868      -2.71409173       0.00000000
Si      -0.01760134       2.71192662       2.71703777       0.00000000
Si      -2.71473243       0.00040725      -2.71436578       0.00000000
