10
Lattice="16.28999089631971 0.0 0.0 0.0 16.28999089631971 0.0 0.0 0.0 34.25627252547053" Properties=species:S:1:pos:R:3:initial_magmoms:R:1 pbc="T T T"
Si       1.40240610      -1.15729047      -1.44356013       0.00000000
Si       1.34363178       1.19153205       1.53259223       0.00000000
Si      -0.63234522      -1.87400323       1.41392844       0.00000000
Si       0.01687644       1.95835122      -1.67896937       0.00000000
Si      -2.35468692       0.76753593      -1.25936405       0.00000000
Si      -2.17359099      -0.61541991       2.66873640       0.00000000
Si      -1.96696863       1.82736333       2.36416371       0.00000000
Si       1.25498160      -0.09484038       3.49835527       0.00000000
Si       3.29650956       0.40316121      -1.74755046       0.00000000
Si       0.17197353       3.08262186       2.19689024       0.00000000
