10
Lattice="16.28999089631971 0.0 0.0 0.0 16.28999089631971 0.0 0.0 0.0 34.25627252547053" Properties=species:S:1:pos:R:3:initial_magmoms:R:1 pbc="T T T"
Si       1.35549090      -1.35702216       1.35463080       0.00000000
Si       1.35651717       1.35801585      -1.35747407       0.00000000
Si      -1.35865116      -1.35697329      -1.35723428       0.00000000
Si      -1.35927018       1.35852084       1.36274954       0.00000000
Si       2.70019782      -0.01661580       2.72142258       0.00000000
Si       2.71197549      -2.71359146       0.00051384       0.00000000
Si       2.71292031       2.71485882      -0.00017128       0.00000000
Si       2.71394658       0.00052128      -2.71450281       0.00000000
Si      -0.00122175      -2.71406224      -2.71477686       0.00000000
Si      -2.71744893      -2.71208789       0.00123323       0.00000000
