10
Lattice="16.28999089631971 0.0 0.0 0.0 16.28999089631971 0.0 0.0 0.0 34.25627252547053" Properties=species:S:1:pos:R:3:initial_magmoms:R:1 pbc="T T T"
Si      -1.35702216       1.35651717      -1.36295508       0.00000000
Si       1.35927018      -1.35852084      -1.36274954       0.00000000
Si       1.34482095       1.37213928       1.36737414       0.00000000
Si      -1.35669636      -1.37272572       1.39268954       0.00000000
Si       2.65155588      -0.04175127       2.70151967       0.00000000
Si      -2.71207323       2.71378368       0.00037682       0.00000000
Si      -2.71332756      -2.71523349      -0.00685126       0.00000000
Si       2.71476108      -2.71554300      -0.00811874       0.00000000
Si       2.71992501       2.71160082      -0.00280902       0.00000000
Si       0.00013032       2.71485882      -2.72005233       0.00000000
