10
Lattice="16.28999089631971 0.0 0.0 0.0 16.28999089631971 0.0 0.0 0.0 34.25627252547053" Properties=species:S:1:pos:R:3:initial_magmoms:R:1 pbc="T T T"
Si       1.48625073       1.12651866       1.47176475       0.00000000
Si      -0.93656097      -1.59599646       1.54472037       0.00000000
Si      -1.95888879       1.62940725      -0.02743929       0.00000000
Si       1.96819038      -0.85483404      -1.41968350       0.00000000
Si      -1.21298598      -2.31984261      -0.66744959       0.00000000
Si      -1.84448412       1.68243120      -2.67202501       0.00000000
Si       0.10503792       2.30158152       2.96274244       0.00000000
Si       2.63889855       2.68662825       0.06443608       0.00000000
Si       3.66169878       0.83813679      -1.02816834       0.00000000
Si       2.47865382      -3.01316130       0.00212389       0.00000000
