10
Lattice="16.28999089631971 0.0 0.0 0.0 16.28999089631971 0.0 0.0 0.0 34.25627252547053" Properties=species:S:1:pos:R:3:initial_magmoms:R:1 pbc="T T T"
Si      -1.00981710       1.45595133       1.56856134       0.00000000
Si       1.02574872       1.52632413      -1.49247812       0.00000000
Si      -1.61140680      -1.02607452      -1.43133063       0.00000000
Si       1.52735040      -1.53200934       1.09010371       0.00000000
Si       2.58312159       2.72334591      -0.18731340       0.00000000
Si       2.44626930       0.22823919      -2.86040035       0.00000000
Si      -0.29110230      -2.46707163      -2.86567582       0.00000000
Si      -2.68337025       2.76014502       0.08769611       0.00000000
Si      -2.34940896       0.07226244       3.07402259       0.00000000
Si       0.65265885       2.10400011       3.37201807       0.00000000
