10
Lattice="16.28999089631971 0.0 0.0 0.0 16.28999089631971 0.0 0.0 0.0 34.25627252547053" Properties=species:S:1:pos:R:3:initial_magmoms:R:1 pbc="T T T"
Si      -0.37450710       1.21976262       2.03276835       0.00000000
Si      -1.23395121       1.04563881      -1.77790154       0.00000000
Si       2.19524040       0.95133600      -0.34407019       0.00000000
Si      -0.62558487      -2.28177288       0.68539988       0.00000000
Si      -1.69720623      -1.20283731      -2.75273283       0.00000000
Si       0.93040335      -0.23157864       3.41028235       0.00000000
Si      -0.45548469      -2.03504454       2.97635790       0.00000000
Si      -3.50339256      -0.72223344      -1.27193611       0.00000000
Si      -2.67558363       1.02330522       2.52609320       0.00000000
Si       1.76811660       3.07737648      -1.47990606       0.00000000
