10
Lattice="16.28999089631971 0.0 0.0 0.0 16.28999089631971 0.0 0.0 0.0 34.25627252547053" Properties=species:S:1:pos:R:3:initial_magmoms:R:1 pbc="T T T"
Si       1.23395121      -1.04563881       1.77790154       0.00000000
Si       1.33959186       1.38368889      -1.50546125       0.00000000
Si      -0.46325502      -2.24847612      -0.97483129       0.00000000
Si      -1.75629006       1.81558566       0.81399800       0.00000000
Si      -2.26944135      -1.76787225       0.50596543       0.00000000
Si      -2.52190377      -0.03616380       2.15502905       0.00000000
Si       3.00206781       2.03173767       0.29799548       0.00000000
Si       3.42919161      -0.09430281       1.43383134       0.00000000
Si       2.34940896      -0.07226244      -3.07402259       0.00000000
Si       0.85944411       0.17412381       3.81066989       0.00000000
