10
Lattice="16.28999089631971 0.0 0.0 0.0 16.28999089631971 0.0 0.0 0.0 34.25627252547053" Properties=species:S:1:pos:R:3:initial_magmoms:R:1 pbc="T T T"
Si       0.37222650       2.18350087       0.91436894       0.00000000
Si       2.31476013      -0.30149532      -0.61387275       0.00000000
Si      -0.63895896      -1.95237279       1.32047727       0.00000000
Si      -1.27615860       0.86778459      -2.32141186       0.00000000
Si       1.41470505      -1.86929379       2.59823695       0.00000000
Si       2.14249338       1.68828650       2.33946493       0.00000000
Si      -2.46252672       2.61746158      -1.11137687       0.00000000
Si       3.15664362      -1.89465732       0.96164262       0.00000000
Si      -2.43074493      -1.19557197       2.75841937       0.00000000
Si       0.98715771       0.18924093       3.78785520       0.00000000
