10
Lattice="16.28999089631971 0.0 0.0 0.0 16.28999089631971 0.0 0.0 0.0 34.25627252547053" Properties=species:S:1:pos:R:3:initial_magmoms:R:1 pbc="T T T"
Si      -1.75117500      -1.11599061       1.16663227       0.00000000
Si      -1.42087896       1.24643147      -1.60946335       0.00000000
Si       1.25882604      -1.44921885      -1.60631177       0.00000000
Si       1.62139257       1.21154969       1.56335438       0.00000000
Si       2.57018733       2.61757054      -0.14733631       0.00000000
Si      -2.74980087       2.45848240      -0.07416487       0.00000000
Si      -3.37248612       0.58593061       1.42095098       0.00000000
Si       2.58879051      -2.85950931      -0.25034498       0.00000000
Si      -0.15545547       0.05126935       3.92416098       0.00000000
Si      -1.67436765       1.66493134       3.14109641       0.00000000
