10
Lattice="16.28999089631971 0.0 0.0 0.0 16.28999089631971 0.0 0.0 0.0 34.25627252547053" Properties=species:S:1:pos:R:3:initial_magmoms:R:1 pbc="T T T"
Si      -1.55404971       1.58218743      -0.71157169       0.00000000
Si       1.79214435       0.20196016       1.50559828       0.00000000
Si      -1.44311481      -1.28730326       1.40121935       0.00000000
Si       1.31121468      -0.20860811      -2.14968507       0.00000000
Si       2.76444558      -1.79444354       0.64251101       0.00000000
Si       2.42318637       2.32408290       0.74329302       0.00000000
Si       2.01960162      -2.38013420      -1.54663731       0.00000000
Si       2.38910769       2.05554225      -1.62285756       0.00000000
Si      -3.11534847       0.09763574      -1.75241486       0.00000000
Si      -2.56244958       2.36500338       1.24052309       0.00000000
