10
Lattice="16.28999089631971 0.0 0.0 0.0 16.28999089631971 0.0 0.0 0.0 34.25627252547053" Properties=species:S:1:pos:R:3:initial_magmoms:R:1 pbc="T T T"
Si       1.49648085       0.81180075       1.56578658       0.00000000
Si       1.40056533       0.68317002      -1.74179541       0.00000000
Si      -1.84181256       1.49980727       0.47691609       0.00000000
Si      -0.50036364      -2.18654547      -0.92721505       0.00000000
Si       0.23149719       2.73444266       2.10100688       0.00000000
Si      -2.75143150      -1.69422909      -1.28741995       0.00000000
Si       1.71957240      -1.03968060       2.99238985       0.00000000
Si       0.03629412      -0.12736011      -3.62441843       0.00000000
Si      -3.66967273       0.36895710      -0.55700730       0.00000000
Si      -1.55452212       3.43830098      -1.12367488       0.00000000
