10
Lattice="16.28999089631971 0.0 0.0 0.0 16.28999089631971 0.0 0.0 0.0 34.25627252547053" Properties=species:S:1:pos:R:3:initial_magmoms:R:1 pbc="T T T"
Si      -1.23518925      -1.37622807       1.45626720       0.00000000
Si      -1.62468315       1.36058967      -1.14392035       0.00000000
Si       1.47919716       1.36708938       1.37824507       0.00000000
Si       0.60362595      -1.31453784      -2.09312793       0.00000000
Si       1.95007590       1.90604403      -2.04873178       0.00000000
Si      -0.21729231       1.82347002      -3.14003446       0.00000000
Si      -3.31819155      -0.33238116      -1.53543551       0.00000000
Si      -2.80772811      -2.49070842      -0.11362812       0.00000000
Si      -2.47622661       0.11300373       2.83154769       0.00000000
Si       0.24936732      -2.61257391       2.84475006       0.00000000
