10
Lattice="16.28999089631971 0.0 0.0 0.0 16.28999089631971 0.0 0.0 0.0 34.25627252547053" Properties=species:S:1:pos:R:3:initial_magmoms:R:1 pbc="T T T"
Si       1.44708957      -1.27527894      -1.32085409       0.00000000
Si      -2.19524040      -0.95133600       0.34407019       0.00000000
Si       1.40743971       0.40493682       1.95219755       0.00000000
Si      -0.42712380       2.12604048      -1.13583586       0.00000000
Si      -2.56974750       0.26842662       2.37683854       0.00000000
Si       3.40605981      -0.12398319      -0.93536804       0.00000000
Si      -3.42919161       0.09430281      -1.43383134       0.00000000
Si       0.44756775      -1.50996897      -3.41775022       0.00000000
Si       2.00596689      -3.22074477      -0.11873231       0.00000000
Si       1.08032022      -1.36721970       3.44597740       0.00000000
