10
Lattice="16.28999089631971 0.0 0.0 0.0 16.28999089631971 0.0 0.0 0.0 34.25627252547053" Properties=species:S:1:pos:R:3:initial_magmoms:R:1 pbc="T T T"
Si      -2.17043073      -0.67380327      -0.52083266       0.00000000
Si       0.14786433       0.53755371       2.28372994       0.00000000
Si       1.11869946      -1.89915336      -0.86795166       0.00000000
Si       0.58684725       2.03307345      -1.13145106       0.00000000
Si       0.14315652      -1.51057170      -3.08066831       0.00000000
Si       0.07887618       2.91364569       2.23176315       0.00000000
Si      -2.20200075      -1.32626664      -2.77229317       0.00000000
Si      -3.76548237       0.78077970       0.39706468       0.00000000
Si      -1.77681546      -0.21338271       3.44995113       0.00000000
Si       3.39149655      -1.90529469      -0.08252341       0.00000000
