10
Lattice="16.28999089631971 0.0 0.0 0.0 16.28999089631971 0.0 0.0 0.0 34.25627252547053" Properties=species:S:1:pos:R:3:initial_magmoms:R:1 pbc="T T T"
Si       2.26113345       0.47397384       0.41439836       0.00000000
Si      -1.56012588       0.96068646       1.51405958       0.00000000
Si      -0.19178217      -2.32849260       0.58499469       0.00000000
Si      -0.17288577       1.23756759      -2.08761267       0.00000000
Si      -0.30742488       3.22413865      -0.71907382       0.00000000
Si       3.12323283      -1.53748278      -0.42501781       0.00000000
Si      -3.16014597      -0.88257591       1.59898093       0.00000000
Si      -2.47894704      -2.80290627       0.36253433       0.00000000
Si       1.29135717      -3.47503167      -0.76778627       0.00000000
Si       2.64349233       0.35948772       2.75519928       0.00000000
