10
Lattice="16.28999089631971 0.0 0.0 0.0 16.28999089631971 0.0 0.0 0.0 34.25627252547053" Properties=species:S:1:pos:R:3:initial_magmoms:R:1 pbc="T T T"
Si       1.27110870      -1.46748214      -1.27735888       0.00000000
Si      -1.33789770      -1.34977060       1.35998848       0.00000000
Si       1.38179925       1.36270240       1.35461024       0.00000000
Si      -1.32108642       1.38107263      -1.43265978       0.00000000
Si       2.04678963       0.36709670      -2.61877326       0.00000000
Si       0.39762261       2.33285172      -2.85683911       0.00000000
Si      -2.69307909      -2.70459361       0.01193832       0.00000000
Si      -2.69493615       0.00281594       2.71413969       0.00000000
Si      -2.69127090       2.71824054      -0.01417868       0.00000000
Si       0.02062314      -2.71078381       2.71441374       0.00000000
