10
Lattice="16.28999089631971 0.0 0.0 0.0 16.28999089631971 0.0 0.0 0.0 34.25627252547053" Properties=species:S:1:pos:R:3:initial_magmoms:R:1 pbc="T T T"
Si      -0.29460465       1.46213013       1.92883476       0.00000000
Si       1.05907806      -2.07095000       1.24271549       0.00000000
Si      -2.47221927      -0.78690704       0.59331897       0.00000000
Si      -2.15358687      -0.25505483      -1.64697399       0.00000000
Si      -1.15070931      -1.89145049       2.20627646       0.00000000
Si       0.32982363      -0.06338374       3.76017611       0.00000000
Si       2.41223250      -0.95585063       2.78729743       0.00000000
Si       1.62856017       0.52751581      -3.41021384       0.00000000
Si       1.66123791       2.66993589       2.25896264       0.00000000
Si      -1.42614063      -1.93281080      -3.16915231       0.00000000
