10
Lattice="16.28999089631971 0.0 0.0 0.0 16.28999089631971 0.0 0.0 0.0 34.25627252547053" Properties=species:S:1:pos:R:3:initial_magmoms:R:1 pbc="T T T"
Si       1.35598449      -1.35653346       1.35723428       0.00000000
Si       1.35575643       1.35811359      -1.35685746       0.00000000
Si      -1.35769654      -1.35666378      -1.35829622       0.00000000
Si      -1.35877922       1.35798327       1.35747407       0.00000000
Si       2.71344648      -2.71391400       0.00006851       0.00000000
Si       2.71290891      -0.00164529      -2.71546198       0.00000000
Si       2.71387002      -0.00011403       2.71460558       0.00000000
Si       2.71362567       2.71524978       0.00027405       0.00000000
Si       0.00170068       2.71642266      -2.71272148       0.00000000
Si      -0.00091061      -2.71541268       2.71416025       0.00000000
