10
Lattice="16.28999089631971 0.0 0.0 0.0 16.28999089631971 0.0 0.0 0.0 34.25627252547053" Properties=species:S:1:pos:R:3:initial_magmoms:R:1 pbc="T T T"
Si      -1.71870903      -0.95177909       1.42417933       0.00000000
Si       1.04622525       1.73737737       1.36988311       0.00000000
Si      -0.54323892       0.48422025      -2.36587653       0.00000000
Si       1.64916702      -1.96575502       0.23806585       0.00000000
Si      -1.86787656      -2.51169713      -1.73079914       0.00000000
Si       2.34277206       0.38680605       2.84241036       0.00000000
Si      -0.39762261      -2.33285172       2.85683911       0.00000000
Si      -2.73463488       1.68342489      -2.09521757       0.00000000
Si       0.34186194      -1.99234519      -3.30929480       0.00000000
Si      -3.27904668      -2.18563940       0.14583243       0.00000000
