10
Lattice="16.28999089631971 0.0 0.0 0.0 16.28999089631971 0.0 0.0 0.0 34.25627252547053" Properties=species:S:1:pos:R:3:initial_magmoms:R:1 pbc="T T T"
Si      -1.35477414       1.35896067       1.35723428       0.00000000
Si      -1.35703845      -1.35702216      -1.35815920       0.00000000
Si       1.35868374       1.35808101      -1.35863878       0.00000000
Si       1.35925389      -1.35812988       1.35877581       0.00000000
Si      -2.71458189       2.71428867      -0.00113046       0.00000000
Si      -2.71355562      -0.00004887      -2.71546198       0.00000000
Si      -2.71552671      -2.71416161      -0.00044533       0.00000000
Si       2.71585251       2.71425609      -0.00174707       0.00000000
Si       0.00128691      -2.71504453      -2.71542773       0.00000000
Si       0.00109143       2.71521720      -2.71535922       0.00000000
