10
Lattice="16.28999089631971 0.0 0.0 0.0 16.28999089631971 0.0 0.0 0.0 34.25627252547053" Properties=species:S:1:pos:R:3:initial_magmoms:R:1 pbc="T T T"
Si       1.90089639      -0.75320073      -1.08578742       0.00000000
Si       0.58995864       2.35168956       0.00459034       0.00000000
Si      -2.16736821      -0.08257401      -1.09130268       0.00000000
Si       0.29014119       1.49086080       2.26280418       0.00000000
Si      -1.95007590      -1.90604403       2.04873178       0.00000000
Si      -1.49988546       1.71405009      -2.58617874       0.00000000
Si      -1.34644995      -3.22058187      -0.04439615       0.00000000
Si      -0.47087874      -0.53895465       3.42697685       0.00000000
Si       2.22874893       1.06930818      -2.60231345       0.00000000
Si      -3.57475905      -0.54545436       0.90481143       0.00000000
