10
Lattice="16.28999089631971 0.0 0.0 0.0 16.28999089631971 0.0 0.0 0.0 34.25627252547053" Properties=species:S:1:pos:R:3:initial_magmoms:R:1 pbc="T T T"
Si      -1.48313934       1.14653907       1.35278096       0.00000000
Si      -0.42707493       0.29916585      -2.27489182       0.00000000
Si       0.11311776      -2.39415759       0.30460695       0.00000000
Si       1.74462642       0.21949146       1.80236053       0.00000000
Si       1.83187566       1.93754889       0.34276845       0.00000000
Si      -0.14273298       0.30336867       3.23458183       0.00000000
Si       1.80691938       0.39944709      -3.02531014       0.00000000
Si      -1.56535497      -1.64502936      -2.88129669       0.00000000
Si      -1.29135717       3.47503167       0.76778627       0.00000000
Si       3.27698992       1.40149386      -1.42444512       0.00000000
