10
Lattice="16.28999089631971 0.0 0.0 0.0 16.28999089631971 0.0 0.0 0.0 34.25627252547053" Properties=species:S:1:pos:R:3:initial_magmoms:R:1 pbc="T T T"
Si       0.08724924       1.71805743      -1.45959208       0.00000000
Si       1.81695469      -1.38642561      -0.44587989       0.00000000
Si      -1.88735940       0.08387721       1.43222130       0.00000000
Si      -1.74462642      -0.21949146      -1.80236053       0.00000000
Si      -3.22776576       0.92704761      -0.44957957       0.00000000
Si      -1.63150866      -2.61364905      -1.49775358       0.00000000
Si      -1.01196738       1.66052115       2.94662344       0.00000000
Si       0.65407608      -3.25601262      -1.23000641       0.00000000
Si       2.61594824      -1.70290773       1.72281742       0.00000000
Si       3.10727582      -0.05411538      -1.93232890       0.00000000
