10
Lattice="16.28999089631971 0.0 0.0 0.0 16.28999089631971 0.0 0.0 0.0 34.25627252547053" Properties=species:S:1:pos:R:3:initial_magmoms:R:1 pbc="T T T"
Si       1.47382441      -1.23841467       1.28807082       0.00000000
Si      -1.27110870       1.46748214       1.27735888       0.00000000
Si      -0.82635912      -1.81420101      -1.28991655       0.00000000
Si       0.77568093       1.83457884      -1.34141438       0.00000000
Si       0.38113713       0.29199825      -3.27105591       0.00000000
Si       0.10524969      -2.60029125       2.63607988       0.00000000
Si      -2.60900640       0.11771154       2.63734736       0.00000000
Si      -2.63278980      -2.63003679      -0.02005363       0.00000000
Si       2.65761317      -2.75011038      -0.05504986       0.00000000
Si      -1.69745058      -0.88705566      -3.32963417       0.00000000
