10
Lattice="16.28999089631971 0.0 0.0 0.0 16.28999089631971 0.0 0.0 0.0 34.25627252547053" Properties=species:S:1:pos:R:3:initial_magmoms:R:1 pbc="T T T"
Si       2.07858771       1.17905391       0.05857826       0.00000000
Si       0.87109146      -0.92714535       2.03971762       0.00000000
Si      -1.04391207       2.17569240       0.01935480       0.00000000
Si      -0.58523454      -1.24838415      -2.01975096       0.00000000
Si       1.16582643       2.69504433      -1.55914086       0.00000000
Si       3.62461852      -0.31719888      -1.03457426       0.00000000
Si      -2.38101156      -0.16777071      -2.95237850       0.00000000
Si       1.69745058       0.88705566       3.32963417       0.00000000
Si      -0.93533922      -1.74298113       3.30958054       0.00000000
Si      -1.77582177      -3.21372378      -1.39813629       0.00000000
