10
Lattice="16.28999089631971 0.0 0.0 0.0 16.28999089631971 0.0 0.0 0.0 34.25627252547053" Properties=species:S:1:pos:R:3:initial_magmoms:R:1 pbc="T T T"
Si      -1.79577702       1.08061344      -0.93262754       0.00000000
Si       1.62945612      -0.05082480      -1.72651710       0.00000000
Si      -1.19058723      -1.96533963       0.62161467       0.00000000
Si       0.58523454       1.24838415       2.01975096       0.00000000
Si       0.61097274      -3.09852090       1.72367383       0.00000000
Si       3.53157426      -0.76595580      -0.56283087       0.00000000
Si       0.75406410      -1.62746874      -3.24091924       0.00000000
Si      -3.63439674       0.61449138       0.43255419       0.00000000
Si       2.73699693      -2.63221965       0.69303904       0.00000000
Si      -1.20984201       3.09057138      -2.00450691       0.00000000
