10
Lattice="16.28999089631971 0.0 0.0 0.0 16.28999089631971 0.0 0.0 0.0 34.25627252547053" Properties=species:S:1:pos:R:3:initial_magmoms:R:1 pbc="T T T"
Si       1.04569420       1.56025620       1.38393504       0.00000000
Si      -0.36375554       1.57568283      -1.82709357       0.00000000
Si      -1.71472842      -1.15302249       1.34480750       0.00000000
Si       1.41520678      -2.00562480      -0.25017370       0.00000000
Si       2.31237853       0.20398338       2.80949006       0.00000000
Si       2.94550567       2.25942300      -0.17035654       0.00000000
Si      -0.41818162      -2.50359381       2.81733475       0.00000000
Si      -2.76095367      -2.89039986      -0.02507561       0.00000000
Si       1.11600998       1.20589983      -3.70426984       0.00000000
Si      -0.41965713       2.92091103       2.80706472       0.00000000
