10
Lattice="16.28999089631971 0.0 0.0 0.0 16.28999089631971 0.0 0.0 0.0 34.25627252547053" Properties=species:S:1:pos:R:3:initial_magmoms:R:1 pbc="T T T"
Si      -1.94390036      -1.10654712      -0.88932759       0.00000000
Si       0.93916737      -0.38856537      -2.22148626       0.00000000
Si      -0.61341624       2.29050432       0.59671034       0.00000000
Si      -0.11440467      -0.05302395       2.64458572       0.00000000
Si      -3.42366588      -0.73676412       0.98784868       0.00000000
Si       1.84448412      -1.68243120       2.67202501       0.00000000
Si      -2.94037432       1.74865005       1.29344906       0.00000000
Si       0.03042972       3.37229064      -1.45078821       0.00000000
Si      -1.15452117      -3.29841549      -1.22010634       0.00000000
Si       0.51787539      -2.70739800      -2.76410592       0.00000000
