10
Lattice="10.86 0.0 0.0 0.0 10.86 0.0 0.0 0.0 10.86" Properties=species:S:1:pos:R:3:initial_magmoms:R:1 pbc="T T T"
Si       1.18713918       1.43184756       1.28252256       0.00000000
Si       1.18713918      -1.28315244      -1.43247744       0.00000000
Si      -1.52786082       1.43184756      -1.43247744       0.00000000
Si       2.54463918       0.07434756       2.64002256       0.00000000
Si       2.54463918      -2.64065244      -0.07497744       0.00000000
Si      -2.82099360      -2.47864296      -0.03474114       0.00000000
Si       2.54463918       2.78934756      -0.07497744       0.00000000
Si       2.54463918       0.07434756      -2.78997744       0.00000000
Si      -0.21245418      -2.56297086      -2.84838252       0.00000000
Si      -0.17036082       2.78934756       2.64002256       0.00000000
