10
Lattice="10.86 0.0 0.0 0.0 10.86 0.0 0.0 0.0 10.86" Properties=species:S:1:pos:R:3:initial_magmoms:R:1 pbc="T T T"
Si       1.33730040      -1.17509544      -1.21489734       0.00000000
Si      -1.37769960       1.53990456      -1.21489734       0.00000000
Si       1.33730040       1.53990456       1.50010266       0.00000000
Si       0.01387908      -2.56890042      -2.51070168       0.00000000
Si       2.69480040      -2.53259544       0.14260266       0.00000000
Si      -2.64580008      -0.08802030      -2.60578098       0.00000000
Si       2.69480040       0.18240456      -2.57239734       0.00000000
Si       0.13792200      -2.53881822       2.91738696       0.00000000
Si      -0.02019960       2.89740456      -2.57239734       0.00000000
Si       2.69480040       0.18240456       2.85760266       0.00000000
