10
Lattice="10.86 0.0 0.0 0.0 10.86 0.0 0.0 0.0 10.86" Properties=species:S:1:pos:R:3:initial_magmoms:R:1 pbc="T T T"
Si       1.22093550       1.40823792       1.23175206       0.00000000
Si       1.22093550      -1.30676208      -1.48324794       0.00000000
Si      -1.21027098      -1.61342676       1.18868130       0.00000000
Si      -1.49406450       1.40823792      -1.48324794       0.00000000
Si      -2.75643090      -0.20745858       2.49100164       0.00000000
Si       2.33809284      -0.01963488       2.91932004       0.00000000
Si       2.54526906      -2.70328206      -0.49423860       0.00000000
Si       2.57843550       2.76573792      -0.12574794       0.00000000
Si      -0.13656450       2.76573792       2.58925206       0.00000000
Si       2.57843550       0.05073792      -2.84074794       0.00000000
