10
Lattice="10.86 0.0 0.0 0.0 10.86 0.0 0.0 0.0 10.86" Properties=species:S:1:pos:R:3:initial_magmoms:R:1 pbc="T T T"
Si       1.39066644      -1.31848002      -0.98900934       0.00000000
Si      -1.32433356       1.39651998      -0.98900934       0.00000000
Si       1.39066644       1.39651998       1.72599066       0.00000000
Si       0.03316644      -2.67598002      -2.34650934       0.00000000
Si      -2.68183356       0.03901998      -2.34650934       0.00000000
Si       2.74816644       0.03901998      -2.34650934       0.00000000
Si       0.03316644       2.75401998      -2.34650934       0.00000000
Si      -2.54526906       2.70328206       0.49423860       0.00000000
Si       2.74816644      -2.67598002       0.36849066       0.00000000
Si       2.74816644       2.75401998       0.36849066       0.00000000
