10
Lattice="10.86 0.0 0.0 0.0 10.86 0.0 0.0 0.0 10.86" Properties=species:S:1:pos:R:3:initial_magmoms:R:1 pbc="T T T"
Si      -1.17055596      -1.37216100       1.24428450       0.00000000
Si      -1.17055596       1.34283900      -1.47071550       0.00000000
Si       1.54444404      -1.37216100      -1.47071550       0.00000000
Si      -2.60026410       2.59158696      -0.08617410       0.00000000
Si      -2.59633278       0.03541446       2.62859784       0.00000000
Si      -2.52805596      -2.72966100      -0.11321550       0.00000000
Si       0.18694404      -2.72966100       2.60178450       0.00000000
Si      -2.52805596      -0.01466100      -2.82821550       0.00000000
Si       0.18694404       2.70033900      -2.82821550       0.00000000
Si       0.18694404      -2.72966100      -2.82821550       0.00000000
