10
Lattice="10.86 0.0 0.0 0.0 10.86 0.0 0.0 0.0 10.86" Properties=species:S:1:pos:R:3:initial_magmoms:R:1 pbc="T T T"
Si       1.35750000       1.35750000       1.35750000       0.00000000
Si      -1.35750000      -1.35750000       1.35750000       0.00000000
Si       1.35750000      -1.35750000      -1.35750000       0.00000000
Si      -1.35750000       1.35750000      -1.35750000       0.00000000
Si       0.21125958      -2.58573342       2.63362602       0.00000000
Si       0.08394780       2.62506834      -2.63332194       0.00000000
Si      -2.50252410       2.77846584      -0.10783980       0.00000000
Si      -2.85721170      -2.51953086       0.00590784       0.00000000
Si       2.65150158      -2.73997800       0.11684274       0.00000000
Si       2.71500000       0.00000000      -2.71500000       0.00000000
