10
Lattice="10.86 0.0 0.0 0.0 10.86 0.0 0.0 0.0 10.86" Properties=species:S:1:pos:R:3:initial_magmoms:R:1 pbc="T T T"
Si       1.44017718       1.09406898       1.42020564       0.00000000
Si      -1.08601086       1.47032454      -1.41965178       0.00000000
Si      -1.27482282      -1.62093102       1.42020564       0.00000000
Si       1.44017718      -1.62093102      -1.29479436       0.00000000
Si      -2.54693064       2.48300868       0.10707960       0.00000000
Si      -2.41984692      -0.19996518      -2.76013416       0.00000000
Si       0.08267718       2.45156898       2.77770564       0.00000000
Si       2.86197924       2.35198278       0.11600652       0.00000000
Si      -2.63232282      -0.26343102       2.77770564       0.00000000
Si       3.05809998      -0.33474864      -2.31655746       0.00000000
