10
Lattice="16.28999089631971 0.0 0.0 0.0 16.28999089631971 0.0 0.0 0.0 34.395419527814205" Properties=species:S:1:pos:R:3:initial_magmoms:R:1 pbc="T T T"
Si       0.86690493       1.70422722      -1.35613446       0.00000000
Si       1.35174420      -1.30394934       1.43061636       0.00000000
Si      -0.85576257      -1.70730603      -1.46657821       0.00000000
Si      -1.38140829       1.39185018       1.44727751       0.00000000
Si      -2.61449939      -2.58395238       0.04133300       0.00000000
Si      -0.82969857      -0.22222818      -3.63269976       0.00000000
Si      -1.04383062       3.37804101      -1.24241419       0.00000000
Si       2.59833645       2.71031391       0.00310247       0.00000000
Si      -2.84016965       2.58427818       0.07307311       0.00000000
Si       2.70295083      -2.74088535      -0.10002194       0.00000000
