10
Lattice="16.28999089631971 0.0 0.0 0.0 16.28999089631971 0.0 0.0 0.0 34.395419527814205" Properties=species:S:1:pos:R:3:initial_magmoms:R:1 pbc="T T T"
Si      -0.70617150       1.85411151       1.29006972       0.00000000
Si      -1.61917713      -1.07111637      -1.39783063       0.00000000
Si       1.21454982       1.66770504      -1.35277261       0.00000000
Si       1.85745096      -1.63147608      -0.05640852       0.00000000
Si      -0.62512875      -1.54567665       2.11580102       0.00000000
Si      -1.17941229       0.57717099       3.30371629       0.00000000
Si       1.61218872      -2.41550563       2.16254442       0.00000000
Si      -0.29352951      -2.41553984      -2.75706958       0.00000000
Si       2.43568080       0.30579588      -2.75700079       0.00000000
Si      -3.07525878      -2.28227135       0.15085839       0.00000000
