10
Lattice="16.28999089631971 0.0 0.0 0.0 16.28999089631971 0.0 0.0 0.0 34.395419527814205" Properties=species:S:1:pos:R:3:initial_magmoms:R:1 pbc="T T T"
Si      -1.69846219      -0.84427602       1.35352931       0.00000000
Si      -1.35992992       1.32519427      -1.41172639       0.00000000
Si       1.35847197      -1.40719326      -1.40498488       0.00000000
Si       1.27902564       1.43832506       1.45021488       0.00000000
Si      -0.74262852       0.31979665       3.63632018       0.00000000
Si      -2.68402136       2.66402702       0.16740260       0.00000000
Si       2.73510729       2.64948005      -0.09847414       0.00000000
Si      -2.75194205      -2.66942391       0.14470161       0.00000000
Si      -3.49331624       0.72255061       1.46242526       0.00000000
Si      -0.00480555       2.66684519      -2.79352874       0.00000000
