10
Lattice="16.28999089631971 0.0 0.0 0.0 16.28999089631971 0.0 0.0 0.0 34.395419527814205" Properties=species:S:1:pos:R:3:initial_magmoms:R:1 pbc="T T T"
Si       1.32564762      -1.34442347      -1.35923895       0.00000000
Si      -1.39185018       1.38425904      -1.31504081       0.00000000
Si       1.61917713       1.07111637       1.39783063       0.00000000
Si      -1.45608165      -1.21115498       1.54868903       0.00000000
Si       0.99404838      -0.47456028       3.51363165       0.00000000
Si       2.68237656      -2.53151650       0.07773369       0.00000000
Si       3.47662809      -0.56035971       1.34142211       0.00000000
Si       2.69184105       0.01853802      -2.69398834       0.00000000
Si      -2.73510729      -2.64948005       0.09847414       0.00000000
Si      -0.02609658      -2.69551349      -2.69474504       0.00000000
