10
Lattice="16.28999089631971 0.0 0.0 0.0 16.28999089631971 0.0 0.0 0.0 34.395419527814205" Properties=species:S:1:pos:R:3:initial_magmoms:R:1 pbc="T T T"
Si       1.96229340       0.25424943      -1.21323031       0.00000000
Si      -1.67589891       1.03502750      -1.29385322       0.00000000
Si      -0.65880018      -2.22477158       0.52635340       0.00000000
Si       0.57733389       1.43646197       1.89505109       0.00000000
Si       3.35873736      -1.12563641       0.20025024       0.00000000
Si       0.43419366      -2.56923992       2.58701853       0.00000000
Si      -1.43229825       2.63912009       2.18693079       0.00000000
Si       2.69796609       2.46480080      -0.72811704       0.00000000
Si      -2.85488766       2.39636651       0.24183433       0.00000000
Si      -3.00535839      -2.57971439       0.77802482       0.00000000
