10
Lattice="16.28999089631971 0.0 0.0 0.0 16.28999089631971 0.0 0.0 0.0 34.395419527814205" Properties=species:S:1:pos:R:3:initial_magmoms:R:1 pbc="T T T"
Si       1.35654975       1.35751086      -1.35738159       0.00000000
Si      -1.35845568      -1.35770634      -1.35748478       0.00000000
Si      -1.35811359       1.35645201       1.35985807       0.00000000
Si       1.35769005      -1.35894438       1.35999565       0.00000000
Si       2.71373481      -2.71492398      -0.00106626       0.00000000
Si       2.71412577      -0.00009774      -2.71514154       0.00000000
Si      -0.00078192       2.71480995      -2.71503835       0.00000000
Si       2.71490769       2.71531494      -0.00099747       0.00000000
Si      -0.00102627      -2.71529865      -2.71493517       0.00000000
Si      -2.71509014      -2.71572219      -0.00044714       0.00000000
