10
Lattice="16.28999089631971 0.0 0.0 0.0 16.28999089631971 0.0 0.0 0.0 34.395419527814205" Properties=species:S:1:pos:R:3:initial_magmoms:R:1 pbc="T T T"
Si       0.01112607       1.20032865       2.02836781       0.00000000
Si      -1.86965217      -1.21144820      -0.82665997       0.00000000
Si       0.00482184       1.87444143      -1.55721909       0.00000000
Si       1.64529000      -1.78113231       0.37281216       0.00000000
Si      -1.79681958      -2.59666577       1.14402669       0.00000000
Si       1.75891275       2.77550649       1.65018996       0.00000000
Si       0.25174566      -3.63855788       1.00596340       0.00000000
Si      -2.15107006       2.21245893       2.18944165       0.00000000
Si      -2.06261211      -1.27704966       3.05146014       0.00000000
Si      -1.59117462      -1.64959219      -3.17297922       0.00000000
