10
Lattice="16.28999089631971 0.0 0.0 0.0 16.28999089631971 0.0 0.0 0.0 34.395419527814205" Properties=species:S:1:pos:R:3:initial_magmoms:R:1 pbc="T T T"
Si       1.11954654       0.34016778       2.03576283       0.00000000
Si       0.47324079       1.27694052      -2.01364657       0.00000000
Si      -2.32150419      -0.45393714       0.64900753       0.00000000
Si       0.55428354      -2.12284764      -1.18791527       0.00000000
Si      -0.07229502       2.50911612       1.43845164       0.00000000
Si       1.17941229      -0.57717099      -3.30371629       0.00000000
Si       3.80008233       0.11852604      -0.39950302       0.00000000
Si       3.26708982       1.45745001       1.51618534       0.00000000
Si      -3.21246945      -1.53829728      -1.56592114       0.00000000
Si      -0.56741328       0.44712792       3.85641659       0.00000000
