10
Lattice="16.28999089631971 0.0 0.0 0.0 16.28999089631971 0.0 0.0 0.0 34.395419527814205" Properties=species:S:1:pos:R:3:initial_magmoms:R:1 pbc="T T T"
Si      -0.79992045       2.00288808      -0.87065174       0.00000000
Si       0.74285658      -0.08017938       2.20323422       0.00000000
Si       2.09877102      -0.15122007      -1.14997710       0.00000000
Si      -1.74834054      -1.57040487      -0.48724579       0.00000000
Si      -0.08649990      -2.29462569       2.68872584       0.00000000
Si      -0.49285395      -2.68411959      -2.27346971       0.00000000
Si       1.36140417      -1.37958381      -3.02841520       0.00000000
Si       1.03636980       3.43344330      -0.58709574       0.00000000
Si      -1.37370312       1.46893446      -3.12561671       0.00000000
Si      -2.34973476      -2.29017852       1.76844148       0.00000000
