10
Lattice="16.28999089631971 0.0 0.0 0.0 16.28999089631971 0.0 0.0 0.0 34.395419527814205" Properties=species:S:1:pos:R:3:initial_magmoms:R:1 pbc="T T T"
Si      -1.45759662       1.44487413       1.20160465       0.00000000
Si      -1.24025544      -2.05903971      -0.10012512       0.00000000
Si       0.60139422       0.71977365      -2.25568727       0.00000000
Si       2.26323486      -0.00444717       0.92028436       0.00000000
Si       2.68302816      -1.85197752      -0.66111473       0.00000000
Si       0.76937670      -3.26169783      -0.39200482       0.00000000
Si       2.34973476       2.29017852      -1.76844148       0.00000000
Si      -1.51053912       1.48921551      -3.14959033       0.00000000
Si       3.09259134       2.20999914       0.43479274       0.00000000
Si       2.22334065      -0.27965043       3.28022420       0.00000000
