10
Lattice="16.28999089631971 0.0 0.0 0.0 16.28999089631971 0.0 0.0 0.0 34.395419527814205" Properties=species:S:1:pos:R:3:initial_magmoms:R:1 pbc="T T T"
Si      -1.33450938      -1.87176987       0.25954798       0.00000000
Si       2.11400217      -0.71773740       0.73884842       0.00000000
Si       0.03989421       0.27520326      -2.35993984       0.00000000
Si      -1.98519714       0.31592826       2.93847112       0.00000000
Si       3.70143009       0.95065182       0.37865939       0.00000000
Si       0.86925069       2.48964957      -2.84543146       0.00000000
Si      -0.86117085      -3.51261270      -1.43012795       0.00000000
Si      -2.22334065       0.27965043      -3.28022420       0.00000000
Si       1.41604083       2.44511271       2.88240656       0.00000000
Si       0.61616925       3.89637252       0.87405689       0.00000000
