10
Lattice="16.28999089631971 0.0 0.0 0.0 16.28999089631971 0.0 0.0 0.0 34.395419527814205" Properties=species:S:1:pos:R:3:initial_magmoms:R:1 pbc="T T T"
Si       1.72682145       1.14034887      -1.23493181       0.00000000
Si       1.35658233      -1.23144255       1.59393279       0.00000000
Si      -1.34017830       1.48129857       1.57795610       0.00000000
Si      -1.35527913      -1.57706748      -1.50617424       0.00000000
Si       2.64572406      -2.62868472       0.15030807       0.00000000
Si       3.48286716      -0.80110962      -1.09556549       0.00000000
Si      -2.74313826      -2.72178207       0.11881904       0.00000000
Si       0.01308087      -2.57777847       2.97704561       0.00000000
Si      -2.74856283       2.87160120       0.14362503       0.00000000
Si      -2.70120780       0.13563054       2.97357167       0.00000000
