10
Lattice="16.28999089631971 0.0 0.0 0.0 16.28999089631971 0.0 0.0 0.0 34.395419527814205" Properties=species:S:1:pos:R:3:initial_magmoms:R:1 pbc="T T T"
Si      -0.96097968      -0.00079821      -2.31371237       0.00000000
Si       2.27776554      -0.77185278      -0.87013581       0.00000000
Si       0.79987158      -1.45125981       2.00834967       0.00000000
Si       0.39291480       2.51198316      -0.59865261       0.00000000
Si      -2.14462737       1.20376584       1.75086541       0.00000000
Si      -0.57785517       2.31375015      -2.69873492       0.00000000
Si       3.52137672       0.96164757       0.14538952       0.00000000
Si      -3.61299168       1.34592867      -0.28568851       0.00000000
Si       1.85637582       0.15214860       3.40734772       0.00000000
Si       2.64530052       2.58486462      -1.23974919       0.00000000
