10
Lattice="16.28999089631971 0.0 0.0 0.0 16.28999089631971 0.0 0.0 0.0 34.395419527814205" Properties=species:S:1:pos:R:3:initial_magmoms:R:1 pbc="T T T"
Si      -0.97076997      -0.19823301      -2.10008230       0.00000000
Si       2.25238572       0.07288146      -0.64109658       0.00000000
Si      -0.20557980       2.42751951       0.39922786       0.00000000
Si      -0.39291480      -2.51198316       0.59865261       0.00000000
Si       0.54455841       1.40919903       2.62076046       0.00000000
Si      -1.35389448      -2.51278137      -1.71505976       0.00000000
Si       3.12846192      -1.55033559       0.74404213       0.00000000
Si       2.30060412      -0.53225946       2.76012677       0.00000000
Si      -2.53754217      -1.30821732       2.34951803       0.00000000
Si      -3.03388218       0.92377332      -2.04848915       0.00000000
