10
Lattice="16.28999089631971 0.0 0.0 0.0 16.28999089631971 0.0 0.0 0.0 34.395419527814205" Properties=species:S:1:pos:R:3:initial_magmoms:R:1 pbc="T T T"
Si       1.25411823       1.28204485      -1.50562594       0.00000000
Si      -1.49998320       1.25112366       1.43625034       0.00000000
Si       1.79396883       0.09330912       1.72321148       0.00000000
Si      -1.36480878      -1.52958213      -1.41262067       0.00000000
Si       1.80310752       2.46917208       1.97701542       0.00000000
Si      -0.10261071       2.46913787      -2.94259858       0.00000000
Si       2.04836976       3.25320164      -0.24193752       0.00000000
Si       0.81168183      -1.11122235       3.60484835       0.00000000
Si      -0.43420995       3.33900107       1.93027202       0.00000000
Si      -2.88433998       2.60240636      -0.03467060       0.00000000
