10
Lattice="16.28999089631971 0.0 0.0 0.0 16.28999089631971 0.0 0.0 0.0 34.395419527814205" Properties=species:S:1:pos:R:3:initial_magmoms:R:1 pbc="T T T"
Si       0.11898216      -2.29772079      -0.63077795       0.00000000
Si       1.17147906      -0.33974424       2.09334080       0.00000000
Si       0.98228700       1.20453147      -1.88163687       0.00000000
Si      -2.23273998       1.04321160       0.14057416       0.00000000
Si      -1.49809356      -3.29520636       0.90229554       0.00000000
Si       2.44734444      -2.76539040      -1.01930883       0.00000000
Si      -0.81168183       1.11122235      -3.60484835       0.00000000
Si       1.20045897       1.61907939       3.35527505       0.00000000
Si      -2.31166503       2.36234601      -2.16859802       0.00000000
Si       3.44012220       0.84435957      -1.80631086       0.00000000
