10
Lattice="16.28999089631971 0.0 0.0 0.0 16.28999089631971 0.0 0.0 0.0 34.395419527814205" Properties=species:S:1:pos:R:3:initial_magmoms:R:1 pbc="T T T"
Si      -0.01112607      -1.20032865      -2.02836781       0.00000000
Si      -0.33718671      -1.19620728       2.00745539       0.00000000
Si       1.74778668       1.57517784      -0.37817785       0.00000000
Si      -2.16219614       1.01213028       0.16107384       0.00000000
Si      -2.07373818      -2.47737831       1.02309233       0.00000000
Si      -0.00630423       0.67411278      -3.58558691       0.00000000
Si       0.56472543       3.42420687      -1.22427125       0.00000000
Si      -1.94616630       2.13674301       2.29176808       0.00000000
Si      -3.62345705      -0.85040316       0.32912995       0.00000000
Si       1.63416393      -2.98146096      -1.65555565       0.00000000
