10
Lattice="16.28999089631971 0.0 0.0 0.0 16.28999089631971 0.0 0.0 0.0 34.395419527814205" Properties=species:S:1:pos:R:3:initial_magmoms:R:1 pbc="T T T"
Si      -0.29934504       1.81809432      -1.42232018       0.00000000
Si       1.57393980      -1.46676789      -1.02278277       0.00000000
Si      -1.98966060      -1.33175637       0.14253470       0.00000000
Si       1.06124463       0.47169324       2.10169889       0.00000000
Si      -1.60849089      -1.91563884       2.39976976       0.00000000
Si      -0.63555435       0.75383604      -3.55136345       0.00000000
Si       0.46105587      -1.49582925       3.33948754       0.00000000
Si       3.38380767       0.33130602       1.46992347       0.00000000
Si       1.58273640      -3.40697205       0.29439056       0.00000000
Si       3.69276381      -0.65187693      -0.62554984       0.00000000
