10
Lattice="16.28999089631971 0.0 0.0 0.0 16.28999089631971 0.0 0.0 0.0 34.395419527814205" Properties=species:S:1:pos:R:3:initial_magmoms:R:1 pbc="T T T"
Si       1.40284593      -1.26226481       1.36854979       0.00000000
Si       1.07777898       1.70888616      -1.20896390       0.00000000
Si      -1.33864704       1.46613258       1.34332074       0.00000000
Si      -0.72531225      -1.66694660      -1.64474314       0.00000000
Si      -0.53616906       0.14284701      -3.40744059       0.00000000
Si      -2.58426189      -2.58526277      -0.18740355       0.00000000
Si       0.02594997      -2.61209240       2.72762020       0.00000000
Si       2.66398515      -2.73278501      -0.02137677       0.00000000
Si      -2.69048898       0.10858100       2.72321759       0.00000000
Si       2.74403421       0.10033500       2.72686350       0.00000000
