10
Lattice="16.28999089631971 0.0 0.0 0.0 16.28999089631971 0.0 0.0 0.0 34.395419527814205" Properties=species:S:1:pos:R:3:initial_magmoms:R:1 pbc="T T T"
Si       0.66445281       1.10798878       1.97257841       0.00000000
Si       0.24526224       0.78402955      -2.21895294       0.00000000
Si      -0.00913869      -2.37586296      -0.25380394       0.00000000
Si      -2.23731747       0.86982898      -0.04674340       0.00000000
Si       1.00848132       3.11120266       0.74166885       0.00000000
Si      -3.30309072      -1.21804842      -0.54076509       0.00000000
Si      -1.61218872       2.41550563      -2.16254442       0.00000000
Si       2.75630058       0.19358384       2.35041231       0.00000000
Si      -1.80310752      -2.46917208      -1.97701542       0.00000000
Si       2.44869651      -2.73603486      -0.17847793       0.00000000
