10
Lattice="16.28999089631971 0.0 0.0 0.0 16.28999089631971 0.0 0.0 0.0 34.395419527814205" Properties=species:S:1:pos:R:3:initial_magmoms:R:1 pbc="T T T"
Si      -2.28847964       0.55827459       0.09899007       0.00000000
Si       0.13113450      -2.37515856       0.21889257       0.00000000
Si       1.12453128       0.85270005      -1.96924205       0.00000000
Si       0.90632673       1.02156219       2.07301309       0.00000000
Si      -0.37564740       3.18629142       1.09525396       0.00000000
Si       3.25361799       0.76031946       1.67065525       0.00000000
Si       2.46190770      -2.83855598       0.17097973       0.00000000
Si      -3.42323666      -0.61985079      -1.55972996       0.00000000
Si       3.72695652      -0.88052337      -0.01902068       0.00000000
Si       3.13416342      -0.34995807      -2.26112175       0.00000000
