10
Lattice="16.28999089631971 0.0 0.0 0.0 16.28999089631971 0.0 0.0 0.0 34.395419527814205" Properties=species:S:1:pos:R:3:initial_magmoms:R:1 pbc="T T T"
Si       0.82909584       1.98922077      -0.75883217       0.00000000
Si      -1.09841841       0.89762787       1.85092175       0.00000000
Si      -0.07449417      -1.61413212      -1.71058836       0.00000000
Si       1.83334176      -0.86988111       1.24508049       0.00000000
Si      -2.56389939       0.91033407      -1.87506734       0.00000000
Si       2.20348314       2.23686135       1.15441411       0.00000000
Si       1.96773426       1.01977029      -2.54447137       0.00000000
Si      -2.06998659      -2.59840880      -1.05889798       0.00000000
Si       0.44198028       2.48819976       2.74234833       0.00000000
Si      -0.97639002      -0.75515390       3.53323705       0.00000000
