10
Lattice="16.28999089631971 0.0 0.0 0.0 16.28999089631971 0.0 0.0 0.0 34.395419527814205" Properties=species:S:1:pos:R:3:initial_magmoms:R:1 pbc="T T T"
Si      -1.27444815      -1.44875115      -1.36597843       0.00000000
Si      -1.33328763       1.32970383       1.53041129       0.00000000
Si       0.66389895       1.94843061      -1.36546250       0.00000000
Si       1.38199473      -1.36863693       1.53079996       0.00000000
Si      -0.40793418       0.59834799      -3.45536375       0.00000000
Si      -0.05799240      -1.76682969      -3.31499597       0.00000000
Si      -2.77570197       2.63810034       0.10349588       0.00000000
Si       2.69992089       2.75691960      -0.02054096       0.00000000
Si      -2.67108759      -2.81309892       0.00037147       0.00000000
Si       2.72064177      -2.83476951       0.18747922       0.00000000
