10
Lattice="16.28999089631971 0.0 0.0 0.0 16.28999089631971 0.0 0.0 0.0 34.395419527814205" Properties=species:S:1:pos:R:3:initial_magmoms:R:1 pbc="T T T"
Si       2.00963214      -1.20265812      -0.29187969       0.00000000
Si       1.24025544       2.05903971       0.10012512       0.00000000
Si      -1.42258941      -0.24275358      -1.94509646       0.00000000
Si      -1.12453128      -0.85270005       1.96924205       0.00000000
Si       2.60242524      -1.73322342       1.95022138       0.00000000
Si       1.43229825      -2.63912009      -2.18693079       0.00000000
Si      -0.21734118       3.50391384       1.30172977       0.00000000
Si      -0.24360066      -1.60409259      -3.48078401       0.00000000
Si       3.92328360       0.20706219      -0.56098961       0.00000000
Si       1.84164966       2.77881336      -2.15556215       0.00000000
