10
Lattice="16.28999089631971 0.0 0.0 0.0 16.28999089631971 0.0 0.0 0.0 34.395419527814205" Properties=species:S:1:pos:R:3:initial_magmoms:R:1 pbc="T T T"
Si      -0.15677496       2.00552706      -1.25894185       0.00000000
Si       0.53299251      -1.33892397      -1.91568836       0.00000000
Si       1.06995978      -0.05204655       2.15745390       0.00000000
Si      -2.14754328      -1.11728223       0.51957750       0.00000000
Si      -0.76036833      -2.90269881       1.50958141       0.00000000
Si       0.18896400      -3.34213785      -0.68477879       0.00000000
Si      -1.92404448       2.86234848       0.06032960       0.00000000
Si      -3.33938484       1.05166611      -0.07773369       0.00000000
Si      -0.72448146       0.79201980       3.50991694       0.00000000
Si      -0.94051944       1.44870228      -3.44305221       0.00000000
