10
Lattice="16.28999089631971 0.0 0.0 0.0 16.28999089631971 0.0 0.0 0.0 34.395419527814205" Properties=species:S:1:pos:R:3:initial_magmoms:R:1 pbc="T T T"
Si      -0.31170915      -1.87734105      -1.34640945       0.00000000
Si       0.11533320       1.80533925      -1.48096441       0.00000000
Si       1.88196741      -0.51750072       1.31194522       0.00000000
Si      -0.94724721       0.51197841       2.16330112       0.00000000
Si      -1.63737306       3.10619349      -0.58021666       0.00000000
Si      -1.75474251       2.68584633       1.78856281       0.00000000
Si      -2.53467513      -1.15641081       2.52349015       0.00000000
Si      -0.45840060       0.98098380      -3.63638897       0.00000000
Si       2.32336125       2.65567725      -1.55525855       0.00000000
Si       1.29008655      -3.55146435      -1.04892330       0.00000000
