10
Lattice="16.28999089631971 0.0 0.0 0.0 16.28999089631971 0.0 0.0 0.0 34.395419527814205" Properties=species:S:1:pos:R:3:initial_magmoms:R:1 pbc="T T T"
Si      -1.35628911      -1.35728280       1.35617775       0.00000000
Si      -1.35747828       1.35736425      -1.35720962       0.00000000
Si       1.35741312      -1.35752715      -1.35731280       0.00000000
Si       1.35876519       1.35796698       1.35641852       0.00000000
Si       2.71163340      -0.00100998       2.71565747       0.00000000
Si      -2.71427238       2.71445157       0.00061912       0.00000000
Si       0.00032580       2.71526607      -2.71410968       0.00000000
Si      -0.00351864      -2.71482624       2.71462561       0.00000000
Si       2.71531494      -0.00034209      -2.71424726       0.00000000
Si       2.71467963       2.71495656       0.00017198       0.00000000
