10
Lattice="16.28999089631971 0.0 0.0 0.0 16.28999089631971 0.0 0.0 0.0 34.395419527814205" Properties=species:S:1:pos:R:3:initial_magmoms:R:1 pbc="T T T"
Si       1.78090425      -1.58874741      -0.25081154       0.00000000
Si      -0.12789279      -0.19287360       2.44393350       0.00000000
Si       0.72531225       1.88933049      -1.50008827       0.00000000
Si      -1.98299799      -0.66150432      -1.43948351       0.00000000
Si       0.72537741      -3.27391533      -1.55677195       0.00000000
Si      -3.55749165      -0.55418580       0.90687014       0.00000000
Si      -0.75657276      -1.99379826      -3.03993767       0.00000000
Si       1.95813945       0.72013203      -3.07247575       0.00000000
Si       3.32099343      -0.55579851      -1.65060271       0.00000000
Si       2.38964526       2.88878715      -0.23526480       0.00000000
