10
Lattice="16.28999089631971 0.0 0.0 0.0 16.28999089631971 0.0 0.0 0.0 34.395419527814205" Properties=species:S:1:pos:R:3:initial_magmoms:R:1 pbc="T T T"
Si       1.35941679      -1.35524655      -1.36377915       0.00000000
Si      -1.35725022       1.35998761      -1.36353838       0.00000000
Si      -1.34877942      -1.35519768       1.39528537       0.00000000
Si       1.35821133       1.36455207       1.39298087       0.00000000
Si       2.71539639      -2.71217097      -0.00632876       0.00000000
Si      -2.71218726      -2.71648782      -0.00006879       0.00000000
Si      -2.71365336       2.71724435      -0.00536569       0.00000000
Si       2.71500543       2.71701629       0.00048154       0.00000000
Si       0.00133578      -2.71332756      -2.72067921       0.00000000
Si      -2.71490769       0.00250992      -2.72091997       0.00000000
