10
Lattice="16.28999089631971 0.0 0.0 0.0 16.28999089631971 0.0 0.0 0.0 34.395419527814205" Properties=species:S:1:pos:R:3:initial_magmoms:R:1 pbc="T T T"
Si       1.18384317       1.79694990       0.92403346       0.00000000
Si       0.32506695      -0.12442302      -2.34250136       0.00000000
Si      -2.38438359       0.57668229       0.03941717       0.00000000
Si       1.05046065      -1.79709651       1.31480004       0.00000000
Si      -0.35991126       3.51978260       0.64966105       0.00000000
Si      -0.31703598      -3.54781539       0.55225316       0.00000000
Si       2.63836098      -0.49024755      -2.47891367       0.00000000
Si      -2.35540368       2.53550592       1.30135143       0.00000000
Si      -1.10851821      -1.84896387      -3.07323245       0.00000000
Si      -3.43850949      -0.94741011       1.46837568       0.00000000
