10
Lattice="16.28999089631971 0.0 0.0 0.0 16.28999089631971 0.0 0.0 0.0 34.395419527814205" Properties=species:S:1:pos:R:3:initial_magmoms:R:1 pbc="T T T"
Si      -0.86535738       1.30693041       1.67784390       0.00000000
Si      -1.63903464      -1.66187322       0.04612428       0.00000000
Si       1.99189233      -0.94156200       0.84162199       0.00000000
Si      -0.24697269       0.83785986      -2.21637328       0.00000000
Si      -2.26180134       2.68681626       0.26436334       0.00000000
Si      -1.33007850      -2.64505617      -2.04934903       0.00000000
Si      -0.27595260      -1.12096377      -3.47830753       0.00000000
Si       0.84662388       2.68111476       2.37576175       0.00000000
Si       3.69152577       0.24702156      -0.30140723       0.00000000
Si       1.74851973       1.82213654      -2.86806366       0.00000000
