10
Lattice="16.28999089631971 0.0 0.0 0.0 16.28999089631971 0.0 0.0 0.0 34.395419527814205" Properties=species:S:1:pos:R:3:initial_magmoms:R:1 pbc="T T T"
Si      -2.29025997       0.40856949       0.27481956       0.00000000
Si       1.41879384       1.77471961       0.61904911       0.00000000
Si       0.38281500      -1.29200877       1.94237922       0.00000000
Si       0.79762356      -1.00934469      -2.05258220       0.00000000
Si       2.73292443      -1.65752379       1.75650627       0.00000000
Si       2.74579353       0.22432959      -2.39371616       0.00000000
Si       3.38797791       0.59606739       1.22440883       0.00000000
Si      -0.74606571      -3.28885326       1.41516593       0.00000000
Si      -3.27119490      -0.45882414      -1.71419988       0.00000000
Si      -2.52683964       2.71957382       0.59985645       0.00000000
