10
Lattice="16.28999089631971 0.0 0.0 0.0 16.28999089631971 0.0 0.0 0.0 34.395419527814205" Properties=species:S:1:pos:R:3:initial_magmoms:R:1 pbc="T T T"
Si      -0.33381468      -0.97397910      -2.11033214       0.00000000
Si      -1.45826451      -0.76712868       1.70075126       0.00000000
Si       1.99161540      -1.05930612       0.89668909       0.00000000
Si      -0.76023801       2.33401491       0.03037117       0.00000000
Si       1.76489118      -0.49601421       3.15973698       0.00000000
Si      -0.94281633       0.79979013      -3.47332020       0.00000000
Si       3.30858045       1.78349436      -0.30801115       0.00000000
Si       0.22069692       3.20140854       2.01939060       0.00000000
Si      -0.48749454      -0.56889567       3.80083356       0.00000000
Si      -3.09368277       2.32499025       0.54516770       0.00000000
