10
Lattice="16.28999089631971 0.0 0.0 0.0 16.28999089631971 0.0 0.0 0.0 34.395419527814205" Properties=species:S:1:pos:R:3:initial_magmoms:R:1 pbc="T T T"
Si      -1.12888071      -1.99684449      -0.52721329       0.00000000
Si      -0.38281500       1.29200877      -1.94237922       0.00000000
Si       2.35010943      -0.36551502      -0.18587295       0.00000000
Si       0.12691539       1.99410777       2.57542727       0.00000000
Si       1.82127087      -0.14305878       2.85915524       0.00000000
Si       1.03597884       3.06672838      -1.32333011       0.00000000
Si      -2.67307497       1.70057826      -1.66755966       0.00000000
Si       3.00516291       1.88807616      -0.71797039       0.00000000
Si      -3.58684623       0.35779356       0.51311116       0.00000000
Si      -0.25280451      -3.62006154       0.85792543       0.00000000
