10
Lattice="16.28999089631971 0.0 0.0 0.0 16.28999089631971 0.0 0.0 0.0 34.395419527814205" Properties=species:S:1:pos:R:3:initial_magmoms:R:1 pbc="T T T"
Si      -1.13863842       0.96945048       1.78563920       0.00000000
Si       0.64632204       1.86898428      -1.27865044       0.00000000
Si      -1.49045355      -1.46328020      -1.14712228       0.00000000
Si       1.85171688      -1.44265543       0.52542472       0.00000000
Si      -0.88817967       1.05423993      -3.07863254       0.00000000
Si      -1.96773426      -1.01977029       2.54447137       0.00000000
Si      -2.04222843      -2.63390241       0.83388302       0.00000000
Si       2.95259508      -1.17025731      -1.50634824       0.00000000
Si       2.87635788       1.21472901      -1.69892830       0.00000000
Si       0.23574888       1.21709106       3.69888548       0.00000000
