10
Lattice="16.28999089631971 0.0 0.0 0.0 16.28999089631971 0.0 0.0 0.0 34.395419527814205" Properties=species:S:1:pos:R:3:initial_magmoms:R:1 pbc="T T T"
Si       1.52884908      -0.11710881      -1.73676328       0.00000000
Si      -1.54838079       1.74262275      -0.24523948       0.00000000
Si      -1.91852217      -1.36411971      -0.15457310       0.00000000
Si       1.57391873      -0.36711144       1.73820789       0.00000000
Si       2.05466977      -2.58617501       0.84795075       0.00000000
Si      -2.39392953      -1.51300543       2.12130429       0.00000000
Si       0.06758721      -0.91712374      -3.41870024       0.00000000
Si       3.07856795      -1.74408396      -1.04280091       0.00000000
Si      -0.34790553       3.64970934      -0.59359648       0.00000000
Si       0.51095214      -0.33137118       3.83185825       0.00000000
