10
Lattice="16.28999089631971 0.0 0.0 0.0 16.28999089631971 0.0 0.0 0.0 34.395419527814205" Properties=species:S:1:pos:R:3:initial_magmoms:R:1 pbc="T T T"
Si       1.13475702       1.17812538       1.65872003       0.00000000
Si       0.08824293      -2.31365960       0.34006770       0.00000000
Si      -2.33986302       0.13914918       0.13727220       0.00000000
Si       1.06296659      -0.03574026      -2.09365036       0.00000000
Si      -2.90488167      -1.18163425      -1.71055396       0.00000000
Si      -1.52529786      -3.04363079      -1.20373717       0.00000000
Si      -2.85229755      -1.49324077       1.80902810       0.00000000
Si      -0.88311348      -2.67189299       2.41438782       0.00000000
Si       0.43766343       3.40850331       1.60000702       0.00000000
Si       3.42323666       0.61985079       1.55972996       0.00000000
