10
Lattice="16.28999089631971 0.0 0.0 0.0 16.28999089631971 0.0 0.0 0.0 34.395419527814205" Properties=species:S:1:pos:R:3:initial_magmoms:R:1 pbc="T T T"
Si       1.36507172       1.35226548       1.38174732       0.00000000
Si      -1.35384561      -1.36083402       1.38456775       0.00000000
Si       1.26302790      -1.55004237      -1.35555176       0.00000000
Si      -1.30689783       1.34799750      -1.53873155       0.00000000
Si      -2.69661402       2.68830612       0.00326069       0.00000000
Si      -2.71699281      -2.71086777      -0.00233545       0.00000000
Si       2.72771882       2.70816363      -0.00507677       0.00000000
Si       0.00443873       2.70840798       2.74284363       0.00000000
Si      -2.70791928      -0.00511506       2.74349714       0.00000000
Si       0.00790065      -2.71989243       2.74229330       0.00000000
