10
Lattice="16.28999089631971 0.0 0.0 0.0 16.28999089631971 0.0 0.0 0.0 34.395419527814205" Properties=species:S:1:pos:R:3:initial_magmoms:R:1 pbc="T T T"
Si      -1.35708732      -1.35646830       1.35741599       0.00000000
Si       1.35755973      -1.35749457      -1.35720962       0.00000000
Si      -1.35782037       1.35752715      -1.35738159       0.00000000
Si       1.35765747       1.35881406       1.35745039       0.00000000
Si       0.00008145       2.71471221      -2.71431605       0.00000000
Si       2.71479333       2.71464705       0.00006879       0.00000000
Si      -0.00360009       2.71404432       2.71558868       0.00000000
Si       0.00022806      -2.71498914      -2.71503835       0.00000000
Si      -2.71564074      -2.71458189       0.00013758       0.00000000
Si      -2.71523349       2.71505430      -0.00006879       0.00000000
