10
Lattice="16.28999089631971 0.0 0.0 0.0 16.28999089631971 0.0 0.0 0.0 34.395419527814205" Properties=species:S:1:pos:R:3:initial_magmoms:R:1 pbc="T T T"
Si      -1.88520912       0.21675474      -1.36955758       0.00000000
Si       0.76084074       2.12791383       0.69351523       0.00000000
Si       1.52781208      -1.45699389      -1.08273402       0.00000000
Si      -0.96501960      -0.66324735       2.11012577       0.00000000
Si       2.37299592      -2.56753206       0.79890286       0.00000000
Si      -1.75492170      -1.91844072      -2.51905314       0.00000000
Si      -3.55926726       0.76315392       0.28809619       0.00000000
Si       0.86156181       1.80832032       3.07089356       0.00000000
Si      -2.62940148       0.93139704       2.53697317       0.00000000
Si       0.63353439      -0.46136538       3.75412456       0.00000000
