10
Lattice="16.28999089631971 0.0 0.0 0.0 16.28999089631971 0.0 0.0 0.0 34.395419527814205" Properties=species:S:1:pos:R:3:initial_magmoms:R:1 pbc="T T T"
Si      -1.20047526      -1.90708659       0.34835700       0.00000000
Si       1.59855399       0.20188197       1.64399879       0.00000000
Si      -1.66438188       1.59464439       0.42684739       0.00000000
Si       0.96501960       0.66324735      -2.11012577       0.00000000
Si       1.82658141       2.47156767       0.96076779       0.00000000
Si      -2.59424766       1.42640127      -1.82202958       0.00000000
Si      -0.29517480       3.06118422       1.77999835       0.00000000
Si       1.72586034       2.79116118      -1.41661054       0.00000000
Si      -2.57486256      -2.15472717      -1.56488928       0.00000000
Si      -0.92018952       0.88000209      -3.47968335       0.00000000
