10
Lattice="16.28999089631971 0.0 0.0 0.0 16.28999089631971 0.0 0.0 0.0 34.395419527814205" Properties=species:S:1:pos:R:3:initial_magmoms:R:1 pbc="T T T"
Si      -1.59855399      -0.20188197      -1.64399879       0.00000000
Si       1.95549137      -0.98155395      -0.82452746       0.00000000
Si       0.22802742       2.26968570      -0.68323100       0.00000000
Si      -0.33257664       0.47462544       2.34759188       0.00000000
Si       2.25174131       2.48577255       0.48105461       0.00000000
Si      -1.89372879       2.85930225       0.13599956       0.00000000
Si       1.66172402       1.70103438       2.66743507       0.00000000
Si       3.53778794       0.83784357      -0.67752135       0.00000000
Si      -2.79902925      -2.10896856      -1.29564178       0.00000000
Si      -3.26293587       1.39276242      -1.21715139       0.00000000
