10
Lattice="16.28999089631971 0.0 0.0 0.0 16.28999089631971 0.0 0.0 0.0 34.395419527814205" Properties=species:S:1:pos:R:3:initial_magmoms:R:1 pbc="T T T"
Si       0.69709359      -2.23037793       0.05871301       0.00000000
Si      -2.18564559      -0.23539050       0.89813370       0.00000000
Si      -0.03054375       1.24908462      -2.03387108       0.00000000
Si       2.60992583       0.39763890       1.05497690       0.00000000
Si      -0.24399162       1.16256843       2.68979210       0.00000000
Si       1.96375691       2.47549356      -1.71402790       0.00000000
Si      -0.04515588      -2.69232975       2.38707784       0.00000000
Si      -0.43766343      -3.40850331      -1.60000702       0.00000000
Si      -1.74425175       2.93778747      -1.96907008       0.00000000
Si      -2.39199102      -2.25429165       2.24691643       0.00000000
