10
Lattice="16.28999089631971 0.0 0.0 0.0 16.28999089631971 0.0 0.0 0.0 34.395419527814205" Properties=species:S:1:pos:R:3:initial_magmoms:R:1 pbc="T T T"
Si       1.16201457       1.42242651       1.53708198       0.00000000
Si       1.60651980      -1.35246096      -1.32845503       0.00000000
Si      -0.39983805       1.77292215      -1.77421992       0.00000000
Si      -1.64392164      -1.23075837       1.52625430       0.00000000
Si       2.48785160       2.92024314       0.14968895       0.00000000
Si      -2.72823291       2.18642751      -1.62797051       0.00000000
Si       2.46891240       0.07442901       3.07581353       0.00000000
Si       0.50477823       3.88987281      -0.92881443       0.00000000
Si      -0.24808041      -2.63643876       3.07347808       0.00000000
Si       2.62430696      -3.17063673       0.02923612       0.00000000
