10
Lattice="16.28999089631971 0.0 0.0 0.0 16.28999089631971 0.0 0.0 0.0 34.395419527814205" Properties=species:S:1:pos:R:3:initial_magmoms:R:1 pbc="T T T"
Si       2.02371389       0.21608685       1.16428560       0.00000000
Si      -2.12175621       0.58961655       0.81923056       0.00000000
Si      -0.22802742      -2.26968570       0.68323100       0.00000000
Si      -0.10072107       0.31959351      -2.37737833       0.00000000
Si      -1.82658141      -2.47156767      -0.96076779       0.00000000
Si       2.60510399       2.32938855       0.36662098       0.00000000
Si      -0.56060406      -1.79506026       3.03082288       0.00000000
Si       3.30976052      -1.43184213       0.00570964       0.00000000
Si      -3.49096329      -0.87692328      -0.53392040       0.00000000
Si      -0.86156181      -1.80832032      -3.07089356       0.00000000
