10
Lattice="16.28999089631971 0.0 0.0 0.0 16.28999089631971 0.0 0.0 0.0 34.395419527814205" Properties=species:S:1:pos:R:3:initial_magmoms:R:1 pbc="T T T"
Si      -0.77801040       1.16955684       1.86423278       0.00000000
Si       0.00374670      -2.35686978       0.41408669       0.00000000
Si      -1.84153563      -0.28637820      -1.52677913       0.00000000
Si       2.35991668       0.93455730       0.36149606       0.00000000
Si       3.25539753      -0.80941752      -0.85393556       0.00000000
Si       2.36828974      -2.64984543       0.32125340       0.00000000
Si      -0.14791320      -0.38154438       3.60718724       0.00000000
Si      -0.12295692       3.42314802       1.33213534       0.00000000
Si      -2.71331127       1.81773594      -1.94485569       0.00000000
Si      -1.05252948      -2.49849504       2.76178175       0.00000000
