10
Lattice="16.28999089631971 0.0 0.0 0.0 16.28999089631971 0.0 0.0 0.0 34.395419527814205" Properties=species:S:1:pos:R:3:initial_magmoms:R:1 pbc="T T T"
Si       1.11659805      -0.54302715      -1.96882931       0.00000000
Si      -1.94816997      -1.23367428       0.34113396       0.00000000
Si       1.61354079       0.72997119       1.54380487       0.00000000
Si      -1.37958381       1.86199654      -0.50681679       0.00000000
Si      -0.86900634      -0.30848373      -3.17170659       0.00000000
Si      -0.81456516       3.18277997       1.34100937       0.00000000
Si      -0.90417645       2.01088225      -2.78269418       0.00000000
Si      -1.07639433      -3.33778842       0.75921052       0.00000000
Si      -2.56863978      -1.49706729      -2.02867737       0.00000000
Si       1.52529786       3.04363079       1.20373717       0.00000000
