10
Lattice="16.28999089631971 0.0 0.0 0.0 16.28999089631971 0.0 0.0 0.0 34.395419527814205" Properties=species:S:1:pos:R:3:initial_magmoms:R:1 pbc="T T T"
Si       1.92900641      -0.90753219       1.00623856       0.00000000
Si      -1.99430066      -1.22640894      -0.31984318       0.00000000
Si      -0.79328716       1.66110759       1.51752676       0.00000000
Si       0.59001728       0.78473817      -2.18638046       0.00000000
Si       0.09382063       3.50153550       0.34233780       0.00000000
Si       0.64616891      -2.07785466       2.76900480       0.00000000
Si       2.94261908       1.20370068       1.52636639       0.00000000
Si      -1.66172402      -1.70103438      -2.66743507       0.00000000
Si      -1.96375691      -2.47549356       1.71402790       0.00000000
Si      -1.43369660       0.56865132      -3.35066606       0.00000000
