10
Lattice="16.28999089631971 0.0 0.0 0.0 16.28999089631971 0.0 0.0 0.0 34.395419527814205" Properties=species:S:1:pos:R:3:initial_magmoms:R:1 pbc="T T T"
Si       1.35689673      -1.35791811       1.36113070       0.00000000
Si      -1.36063299       1.35614250       1.36109630       0.00000000
Si      -1.36507172      -1.35226548      -1.38174732       0.00000000
Si       1.36264710       1.35589815      -1.38682409       0.00000000
Si       2.71530354      -2.71467963       0.00110065       0.00000000
Si       2.71584111       2.71454931      -0.00030956       0.00000000
Si      -2.71390001       2.71666701       0.00257966       0.00000000
Si      -2.71891733      -2.71309950       0.00282043       0.00000000
Si       2.71450533       0.00001629       2.71885625       0.00000000
Si      -0.00078355      -2.71474479       2.71889064       0.00000000
