10
Lattice="16.28999089631971 0.0 0.0 0.0 16.28999089631971 0.0 0.0 0.0 34.395419527814205" Properties=species:S:1:pos:R:3:initial_magmoms:R:1 pbc="T T T"
Si       1.35689184       1.35762489       1.35765676       0.00000000
Si       1.35744570      -1.35752715      -1.35720962       0.00000000
Si      -1.35762815      -1.35708732       1.35772555       0.00000000
Si      -1.35822762       1.35786924      -1.35741599       0.00000000
Si      -0.00148239       2.71482624      -2.71448803       0.00000000
Si       2.71477737      -2.71482624       0.00044714       0.00000000
Si       2.71451673       2.71546155       0.00020637       0.00000000
Si       2.71510317      -0.00097740      -2.71510714       0.00000000
Si      -2.71533874      -2.71498914       0.00006879       0.00000000
Si      -0.00016290      -2.71546155      -2.71493517       0.00000000
