10
Lattice="16.28999089631971 0.0 0.0 0.0 16.28999089631971 0.0 0.0 0.0 34.395419527814205" Properties=species:S:1:pos:R:3:initial_magmoms:R:1 pbc="T T T"
Si       1.35964485       1.34644995      -1.36185300       0.00000000
Si      -1.35752715      -1.36682874      -1.36316003       0.00000000
Si      -1.34962650       1.44244692       1.30647635       0.00000000
Si       1.41134931      -1.34319195       1.37688381       0.00000000
Si      -2.65538892       0.01291797       2.69261253       0.00000000
Si      -0.00074934       2.70668124      -2.72319007       0.00000000
Si       2.72767905       2.70422145       0.02992403       0.00000000
Si      -2.71526933      -0.00803097      -2.72312128       0.00000000
Si       2.71549413      -0.00796581      -2.72401556       0.00000000
Si      -2.71211558      -2.73248460       0.01303587       0.00000000
