10
Lattice="16.28999089631971 0.0 0.0 0.0 16.28999089631971 0.0 0.0 0.0 34.395419527814205" Properties=species:S:1:pos:R:3:initial_magmoms:R:1 pbc="T T T"
Si       1.35762815       1.35708732      -1.35772555       0.00000000
Si      -1.35771059      -1.35790182      -1.35765676       0.00000000
Si       1.35774218      -1.35879777       1.35996125       0.00000000
Si      -1.35831592       1.35923760       1.36216256       0.00000000
Si      -2.71484646      -2.71373481      -0.00027516       0.00000000
Si       2.71451999       2.71471221      -0.00006879       0.00000000
Si       2.71507385      -0.00043983      -2.71493517       0.00000000
Si      -0.00059947       2.71495656      -2.71514154       0.00000000
Si      -0.00021503      -2.71520091      -2.71490077       0.00000000
Si      -2.71541661      -0.00013032      -2.71493517       0.00000000
