10
Lattice="16.28999089631971 0.0 0.0 0.0 16.28999089631971 0.0 0.0 0.0 34.395419527814205" Properties=species:S:1:pos:R:3:initial_magmoms:R:1 pbc="T T T"
Si       0.10577097       2.43147798      -0.21438677       0.00000000
Si       1.46836431      -0.14216283       2.03655393       0.00000000
Si      -2.45446154      -0.56347110       0.21070646       0.00000000
Si       0.32949783      -1.40654376      -2.14686010       0.00000000
Si       0.97202430       2.08982781      -2.36145324       0.00000000
Si      -0.20903328       0.46556820      -3.48893573       0.00000000
Si       2.65201200      -1.34672688      -2.02802386       0.00000000
Si      -2.17443807       2.88952020      -0.02070605       0.00000000
Si       3.61299168      -1.34592867       0.28568851       0.00000000
Si       0.08050518      -1.28687742       3.66154721       0.00000000
