10
Lattice="16.28999089631971 0.0 0.0 0.0 16.28999089631971 0.0 0.0 0.0 34.395419527814205" Properties=species:S:1:pos:R:3:initial_magmoms:R:1 pbc="T T T"
Si      -1.35356542       1.35690813      -1.35975488       0.00000000
Si      -1.37867157      -1.33084413       1.36845693       0.00000000
Si       1.35990549      -1.35935163      -1.35941093       0.00000000
Si       1.36497168       1.35299853       1.38606739       0.00000000
Si       0.01102833      -2.62358595       2.67025549       0.00000000
Si      -2.71347270       2.71276780       0.00085989       0.00000000
Si      -2.71293042      -2.71482624       0.00282043       0.00000000
Si      -2.71242934      -0.00138465      -2.71662054       0.00000000
Si       2.71551042       2.71415835      -0.00216691       0.00000000
Si       0.00273672       2.71331410      -2.71710208       0.00000000
