10
Lattice="16.28999089631971 0.0 0.0 0.0 16.28999089631971 0.0 0.0 0.0 34.395419527814205" Properties=species:S:1:pos:R:3:initial_magmoms:R:1 pbc="T T T"
Si       2.04856524      -1.04189211      -0.13806329       0.00000000
Si      -1.67600414      -1.58258979      -0.02077485       0.00000000
Si      -0.26579253       1.31961610       1.90743345       0.00000000
Si      -0.07283259       1.38521756      -1.97068666       0.00000000
Si      -0.79673250      -2.25347715      -2.21499746       0.00000000
Si       1.79681958       2.59666577      -1.14402669       0.00000000
Si       1.71235593      -2.10615039      -2.26710655       0.00000000
Si      -3.50732564      -0.23972364      -0.67545763       0.00000000
Si       3.44210958       0.81553346      -0.77121453       0.00000000
Si      -1.81551140       2.94659126       1.21347108       0.00000000
