10
Lattice="16.28999089631971 0.0 0.0 0.0 16.28999089631971 0.0 0.0 0.0 34.433804113860816" Properties=species:S:1:pos:R:3:initial_magmoms:R:1 pbc="T T T"
Si       0.96267384       1.70041536       1.31939878       0.00000000
Si      -1.64919797      -0.96884775       1.41757994       0.00000000
Si      -1.71293260       0.78310917      -1.59425159       0.00000000
Si       1.88564895      -1.78800669       0.01273037       0.00000000
Si      -0.28496097      -2.27739087       2.75718996       0.00000000
Si      -2.45111395      -2.68299558       0.02103594       0.00000000
Si       1.31867550       3.41981576      -0.31716995       0.00000000
Si       2.43097299       0.44403282       2.72852036       0.00000000
Si      -2.72344365      -1.48232484      -2.23799192       0.00000000
Si       1.07088831      -3.53263311       1.37839770       0.00000000
