10
Lattice="16.28999089631971 0.0 0.0 0.0 16.28999089631971 0.0 0.0 0.0 34.433804113860816" Properties=species:S:1:pos:R:3:initial_magmoms:R:1 pbc="T T T"
Si       1.45702647       1.55237577       1.05742828       0.00000000
Si      -0.75866440      -1.19211849       2.05872943       0.00000000
Si       1.20132234      -1.50728112      -1.62534533       0.00000000
Si       0.85612095       0.49309830      -3.05854993       0.00000000
Si      -0.44148669       3.13765667       1.03349677       0.00000000
Si      -2.57112305       2.14055880       1.38482507       0.00000000
Si       1.30953681       2.72675608      -2.29618508       0.00000000
Si       2.86246251       2.43960410      -0.57563023       0.00000000
Si      -0.58244243      -3.11038002      -2.16650730       0.00000000
Si      -3.66701651       1.09613781      -0.71656786       0.00000000
