10
Lattice="16.28999089631971 0.0 0.0 0.0 16.28999089631971 0.0 0.0 0.0 34.433804113860816" Properties=species:S:1:pos:R:3:initial_magmoms:R:1 pbc="T T T"
Si       1.71293260      -0.78310917       1.59425159       0.00000000
Si       0.75866440       1.19211849      -2.05872943       0.00000000
Si      -1.01051105      -2.26543401      -0.64374033       0.00000000
Si      -1.17601583       2.02259898       1.28500142       0.00000000
Si       0.06373462      -1.75195692       3.01183153       0.00000000
Si       2.21569087       2.74449426      -1.00130115       0.00000000
Si      -1.82627257      -1.65336984      -2.93500137       0.00000000
Si      -1.81245865       3.33267729      -0.67390436       0.00000000
Si      -0.73818135      -3.46610475       1.61528753       0.00000000
Si      -2.74357876       0.93268395       2.72782480       0.00000000
