10
Lattice="16.28999089631971 0.0 0.0 0.0 16.28999089631971 0.0 0.0 0.0 34.433804113860816" Properties=species:S:1:pos:R:3:initial_magmoms:R:1 pbc="T T T"
Si       1.33861446       1.34394129      -1.38623686       0.00000000
Si      -1.37507148      -1.37015190      -1.38289678       0.00000000
Si       1.38328164      -1.41371136       1.42934801       0.00000000
Si      -1.31830083       1.41296202       1.49373926       0.00000000
Si      -2.13099264      -0.52600410       2.76748082       0.00000000
Si      -0.41071977      -2.41041501       2.68535615       0.00000000
Si       2.69386101       2.69744481       0.00185943       0.00000000
Si      -2.73639909       2.67955839      -0.02000605       0.00000000
Si       2.69017947      -2.74183669      -0.02799470       0.00000000
Si       2.69677692      -0.01172880      -2.74633845       0.00000000
