10
Lattice="16.28999089631971 0.0 0.0 0.0 16.28999089631971 0.0 0.0 0.0 34.433804113860816" Properties=species:S:1:pos:R:3:initial_magmoms:R:1 pbc="T T T"
Si      -0.99227277       0.65746440      -2.03035596       0.00000000
Si      -0.79359993      -2.26504305      -0.24031365       0.00000000
Si       2.37296430      -0.38441142       0.28683375       0.00000000
Si      -0.69198291       1.56481740       1.75168303       0.00000000
Si      -3.18383163      -0.05763402      -1.32890454       0.00000000
Si      -1.16963829       0.04592151       3.48439302       0.00000000
Si       1.02325635      -3.32029459      -1.29133724       0.00000000
Si      -0.79164513       2.98952451      -2.16385589       0.00000000
Si       1.20717045       2.91437874       2.17184454       0.00000000
Si       2.79244809      -0.43963452       2.63566814       0.00000000
