10
Lattice="16.28999089631971 0.0 0.0 0.0 16.28999089631971 0.0 0.0 0.0 34.433804113860816" Properties=species:S:1:pos:R:3:initial_magmoms:R:1 pbc="T T T"
Si      -1.89571617      -0.56816262      -1.20084516       0.00000000
Si       0.03315015      -0.53695098       2.25965079       0.00000000
Si       0.88796790       2.18025360      -0.34320192       0.00000000
Si       1.74475674      -1.61412723      -0.44433406       0.00000000
Si       2.27222694       0.04137660       2.55684912       0.00000000
Si       2.57465079       2.04569820       1.36888221       0.00000000
Si      -1.73034009       1.04625783      -2.95187394       0.00000000
Si      -0.16747749      -2.86901109       2.39315072       0.00000000
Si      -3.53061315       1.27747809      -0.48534474       0.00000000
Si       0.85874364      -3.78441135       0.33931090       0.00000000
