10
Lattice="16.28999089631971 0.0 0.0 0.0 16.28999089631971 0.0 0.0 0.0 34.433804113860816" Properties=species:S:1:pos:R:3:initial_magmoms:R:1 pbc="T T T"
Si      -0.47765538      -1.51889589       1.73270999       0.00000000
Si       1.89915336       1.34956134       0.42016151       0.00000000
Si      -1.75278771       1.60757865      -0.31317562       0.00000000
Si       0.69198291      -1.56481740      -1.75168303       0.00000000
Si      -2.12608935      -2.96906427       0.79993215       0.00000000
Si      -1.24867737       2.70958086      -2.36026642       0.00000000
Si       1.50143301      -2.84379417       2.05903934       0.00000000
Si      -3.82792194       0.45103752       0.01773342       0.00000000
Si      -3.39073092      -1.69684785      -0.80613024       0.00000000
Si       3.45717783       0.18070497       1.79048995       0.00000000
