10
Lattice="16.28999089631971 0.0 0.0 0.0 16.28999089631971 0.0 0.0 0.0 34.433804113860816" Properties=species:S:1:pos:R:3:initial_magmoms:R:1 pbc="T T T"
Si      -1.92098196      -1.06144011      -0.81208729       0.00000000
Si       0.29958939       2.23028019      -0.67727887       0.00000000
Si       2.02502619      -1.09263546      -0.56512791       0.00000000
Si      -0.19376955       0.20193084       2.37810314       0.00000000
Si      -0.77789637      -2.29034142       2.27270121       0.00000000
Si      -3.56664663       0.62073045      -0.82947637       0.00000000
Si      -2.36094228      -2.78334198       0.71477731       0.00000000
Si      -1.26247500      -2.08463130      -2.81293346       0.00000000
Si       2.33548101       2.89220805       0.35470281       0.00000000
Si       2.67235821      -0.38503044      -2.75515351       0.00000000
