10
Lattice="16.28999089631971 0.0 0.0 0.0 16.28999089631971 0.0 0.0 0.0 34.433804113860816" Properties=species:S:1:pos:R:3:initial_magmoms:R:1 pbc="T T T"
Si       0.19376955      -0.20193084      -2.37810314       0.00000000
Si      -1.67607810      -1.07484678       1.40755140       0.00000000
Si       0.25446609       1.98783612       1.39129863       0.00000000
Si      -0.58412682      -2.49227226      -0.10540193       0.00000000
Si      -0.54200088       0.35424234       2.97876473       0.00000000
Si      -1.77907977       3.15156114       0.12206790       0.00000000
Si       0.49335894       2.02834935      -3.05538201       0.00000000
Si      -1.72721241      -1.26337095      -3.19019043       0.00000000
Si       2.21879574      -1.29456630      -2.94323105       0.00000000
Si      -2.16717273      -2.98527282      -1.66332584       0.00000000
