10
Lattice="16.28999089631971 0.0 0.0 0.0 16.28999089631971 0.0 0.0 0.0 34.433804113860816" Properties=species:S:1:pos:R:3:initial_magmoms:R:1 pbc="T T T"
Si      -0.04820211       0.09826128       2.37465976       0.00000000
Si       1.90858527       0.75380346      -1.24540252       0.00000000
Si      -1.16506080      -2.07650259      -0.43252326       0.00000000
Si      -1.02711708       2.03696676      -0.83594993       0.00000000
Si       0.96635538       2.84232807      -1.86497031       0.00000000
Si      -2.02870773      -1.07470017       2.70959756       0.00000000
Si      -3.31371180      -1.37489229      -0.90981048       0.00000000
Si      -1.97291448       2.92556997       1.16196937       0.00000000
Si      -0.26858952       2.44784943       2.79891890       0.00000000
Si      -0.01604565      -3.36137634      -1.98779575       0.00000000
