10
Lattice="16.28999089631971 0.0 0.0 0.0 16.28999089631971 0.0 0.0 0.0 34.433804113860816" Properties=species:S:1:pos:R:3:initial_magmoms:R:1 pbc="T T T"
Si      -1.17095778      -1.54142496       1.37136606       0.00000000
Si       1.59456294       1.18894194       1.36325001       0.00000000
Si       0.82427400      -0.89692740      -2.22150869       0.00000000
Si      -1.19966076       2.19385575      -0.44668613       0.00000000
Si       1.86274521       1.14642504      -2.89176306       0.00000000
Si      -2.41362414      -0.11069055       2.72337915       0.00000000
Si      -0.18639018       2.57250051      -2.62576178       0.00000000
Si      -2.95894818      -2.34273006       0.00758915       0.00000000
Si       0.29320371       2.60468636       2.71760459       0.00000000
Si       0.30685473      -2.84990292       2.70082155       0.00000000
