10
Lattice="16.28999089631971 0.0 0.0 0.0 16.28999089631971 0.0 0.0 0.0 34.433804113860816" Properties=species:S:1:pos:R:3:initial_magmoms:R:1 pbc="T T T"
Si      -1.35635427      -1.35778779      -1.36010159       0.00000000
Si       1.35871632       1.35772865      -1.36006715       0.00000000
Si      -1.36391283       1.36634004       1.34963371       0.00000000
Si       1.36565586      -1.36778985       1.35221624       0.00000000
Si      -0.00669519       2.70093643       2.71521027       0.00000000
Si       0.01602936      -2.69619048       2.72526495       0.00000000
Si      -2.71205694       2.71351719      -0.00447640       0.00000000
Si      -2.71314837      -2.71471221      -0.00192829       0.00000000
Si       2.71538010      -2.71309950      -0.00561271       0.00000000
Si       2.71614573       2.71397169      -0.00123962       0.00000000
