10
Lattice="16.28999089631971 0.0 0.0 0.0 16.28999089631971 0.0 0.0 0.0 34.433804113860816" Properties=species:S:1:pos:R:3:initial_magmoms:R:1 pbc="T T T"
Si       0.45685305      -2.21656401      -0.46399577       0.00000000
Si       1.69942167       1.56520414       0.31324449       0.00000000
Si      -1.14789114       0.91501388      -1.84634161       0.00000000
Si      -1.22530122       0.08847099       2.10452642       0.00000000
Si       0.38729475       3.39270920       1.10171018       0.00000000
Si      -3.09252455       1.65398953      -0.76074646       0.00000000
Si       2.16117801      -2.69428455       1.17295376       0.00000000
Si      -1.73447775      -3.15786537      -0.63561395       0.00000000
Si      -3.40534305       0.63558693       1.37280767       0.00000000
Si      -0.77188536       2.32212877       2.86689127       0.00000000
