10
Lattice="16.28999089631971 0.0 0.0 0.0 16.28999089631971 0.0 0.0 0.0 34.433804113860816" Properties=species:S:1:pos:R:3:initial_magmoms:R:1 pbc="T T T"
Si      -1.57029084       1.64110088       0.64129553       0.00000000
Si       0.98295489       0.92799636      -1.96011096       0.00000000
Si      -0.65526525      -2.36537316      -0.47907778       0.00000000
Si       1.17972180       0.35349300       2.24928621       0.00000000
Si       2.80963404      -0.44523828      -2.30720390       0.00000000
Si      -2.97572688       0.75387255       2.27435403       0.00000000
Si      -3.12321654       1.92825286      -1.07925933       0.00000000
Si      -0.65190951       1.17132823      -3.63290610       0.00000000
Si       1.66348593       3.12410339      -1.58533323       0.00000000
Si       3.22885719      -1.07258247       1.98328492       0.00000000
