10
Lattice="16.28999089631971 0.0 0.0 0.0 16.28999089631971 0.0 0.0 0.0 34.433804113860816" Properties=species:S:1:pos:R:3:initial_magmoms:R:1 pbc="T T T"
Si       0.10811021      -1.59892866      -1.70285587       0.00000000
Si       1.83161991       1.36215351      -0.60145559       0.00000000
Si      -2.32520432       0.46483515      -0.24840560       0.00000000
Si       0.32184479      -0.69568074       2.28637144       0.00000000
Si      -2.94950228      -1.39905036       1.13163317       0.00000000
Si       3.46162989       0.08320932       0.53523935       0.00000000
Si       0.99454197       3.36390129       0.33517884       0.00000000
Si      -1.95408554      -0.31084578       3.06127020       0.00000000
Si      -0.86219942      -0.37346454      -3.54055459       0.00000000
Si       2.56274769       0.00881289       2.80969668       0.00000000
