10
Lattice="16.28999089631971 0.0 0.0 0.0 16.28999089631971 0.0 0.0 0.0 34.433804113860816" Properties=species:S:1:pos:R:3:initial_magmoms:R:1 pbc="T T T"
Si      -0.82469754       0.06239070      -2.24122869       0.00000000
Si       0.62827272       1.96911891       1.21909306       0.00000000
Si      -2.02230576      -0.73570527       1.15604817       0.00000000
Si       1.50166107      -1.94806083       0.15336898       0.00000000
Si       1.76907771       0.52996257       2.75673544       0.00000000
Si      -2.43773334       1.66118904      -1.68102482       0.00000000
Si       3.11313303      -0.76488881       1.38749856       0.00000000
Si      -2.44025829      -2.60725427      -0.42663507       0.00000000
Si      -0.94739382      -2.19642366       2.73765566       0.00000000
Si      -1.42698771      -2.22860951      -2.60571071       0.00000000
