10
Lattice="16.28999089631971 0.0 0.0 0.0 16.28999089631971 0.0 0.0 0.0 34.433804113860816" Properties=species:S:1:pos:R:3:initial_magmoms:R:1 pbc="T T T"
Si       1.63781289      -0.85895541      -1.50854580       0.00000000
Si      -0.74665215       2.29231251       0.28755686       0.00000000
Si      -2.17191312      -1.07515629       0.21218122       0.00000000
Si       1.72439424      -0.69242274       1.59304640       0.00000000
Si      -2.21359923      -0.46058346      -2.53426053       0.00000000
Si      -1.34012943      -2.83164183       1.46591673       0.00000000
Si       1.92845907      -3.07701810      -0.85788428       0.00000000
Si      -3.42829566       0.24897636       1.65581926       0.00000000
Si       3.75284133       0.43652313       0.83911784       0.00000000
Si      -0.02756268       2.98629909       2.46842306       0.00000000
