10
Lattice="16.28999089631971 0.0 0.0 0.0 16.28999089631971 0.0 0.0 0.0 34.433804113860816" Properties=species:S:1:pos:R:3:initial_magmoms:R:1 pbc="T T T"
Si       0.02725317      -2.18515689      -0.90650483       0.00000000
Si      -1.55802447       1.16885637      -1.37032843       0.00000000
Si      -0.64733202      -0.70760502       2.19002560       0.00000000
Si       1.87071102       1.47680253       0.28487102       0.00000000
Si      -1.95574482      -3.02449914       0.26854939       0.00000000
Si      -0.26440299       1.55198088      -3.32637620       0.00000000
Si       1.18506492      -0.32092929      -3.53914280       0.00000000
Si       1.69122780       2.08997442       2.61504228       0.00000000
Si       1.15779546      -0.09555714       3.62147407       0.00000000
Si      -2.12354811       3.16776969      -0.24279289       0.00000000
