10
Lattice="16.28999089631971 0.0 0.0 0.0 16.28999089631971 0.0 0.0 0.0 34.433804113860816" Properties=species:S:1:pos:R:3:initial_magmoms:R:1 pbc="T T T"
Si      -1.35664749       1.35747828       1.36447468       0.00000000
Si       1.35980775      -1.35995436       1.36402704       0.00000000
Si       1.36495539       1.37578824      -1.37208112       0.00000000
Si      -1.37186235      -1.36907676      -1.37857189       0.00000000
Si      -2.70954828      -2.71557558       0.00633582       0.00000000
Si       2.71596654       2.71197549       0.00719667       0.00000000
Si      -2.71362078       2.71560816       0.00334008       0.00000000
Si       2.71428867      -2.71497285       0.00661129       0.00000000
Si      -2.71368594      -0.00050499       2.72195930       0.00000000
Si       0.00127062       2.71480995       2.72185600       0.00000000
