10
Lattice="16.28999089631971 0.0 0.0 0.0 16.28999089631971 0.0 0.0 0.0 34.433804113860816" Properties=species:S:1:pos:R:3:initial_magmoms:R:1 pbc="T T T"
Si      -1.35721764      -1.35757602       1.35614170       0.00000000
Si      -1.35705474       1.35687555      -1.35741575       0.00000000
Si       1.35705474       1.35615879       1.35827660       0.00000000
Si       1.35785295      -1.35780408      -1.35769122       0.00000000
Si      -0.00327429      -2.71422351       2.71393622       0.00000000
Si      -2.71401174       2.71480995      -0.00017217       0.00000000
Si      -2.71295289      -0.00004887       2.71610555       0.00000000
Si      -2.71454931      -0.00133578      -2.71510697       0.00000000
Si      -0.00001629       2.71485882      -2.71490037       0.00000000
Si      -2.71433754      -2.71560816      -0.00048207       0.00000000
