10
Lattice="16.28999089631971 0.0 0.0 0.0 16.28999089631971 0.0 0.0 0.0 34.433804113860816" Properties=species:S:1:pos:R:3:initial_magmoms:R:1 pbc="T T T"
Si      -0.61686972       1.53253062       1.63316181       0.00000000
Si      -0.30242385      -2.00432160       1.18796691       0.00000000
Si       2.37921966       0.03901455      -0.18029550       0.00000000
Si      -1.68668289       0.13455540      -1.71208413       0.00000000
Si       2.35595754       1.67894514      -1.90071262       0.00000000
Si       0.95395869      -3.32845425      -0.25567114       0.00000000
Si      -2.57465079      -2.04569820      -1.36888221       0.00000000
Si       1.39393530       2.17854315       2.64221057       0.00000000
Si      -2.54150064      -2.58264918       0.89076858       0.00000000
Si       3.09830913       0.73300113       2.00057070       0.00000000
