10
Lattice="16.28999089631971 0.0 0.0 0.0 16.28999089631971 0.0 0.0 0.0 34.433804113860816" Properties=species:S:1:pos:R:3:initial_magmoms:R:1 pbc="T T T"
Si       1.70437383      -1.44554202      -0.64163986       0.00000000
Si      -0.50730318       0.33614415       2.25703382       0.00000000
Si      -2.01080502      -0.64601253      -1.00904876       0.00000000
Si       0.35570844       2.30672916      -0.40005216       0.00000000
Si      -1.90527840       2.93421996      -0.17468279       0.00000000
Si       1.30201083      -3.13688385       0.93219247       0.00000000
Si       1.60578675       1.09884195       2.97463470       0.00000000
Si      -2.15265834       2.03421375       2.11675042       0.00000000
Si      -2.95303491       1.44251208      -1.62861654       0.00000000
Si       0.98528436      -2.13952860      -2.82250607       0.00000000
