10
Lattice="16.28999089631971 0.0 0.0 0.0 16.28999089631971 0.0 0.0 0.0 34.433804113860816" Properties=species:S:1:pos:R:3:initial_magmoms:R:1 pbc="T T T"
Si       0.15662835       1.74575043      -1.52617592       0.00000000
Si      -1.83821247      -1.42781850      -0.07141575       0.00000000
Si      -0.12843036       0.80894511       2.18496383       0.00000000
Si       2.00422386      -1.04896197      -0.63265264       0.00000000
Si       2.26971828       2.50844823      -0.80857504       0.00000000
Si      -3.30366087       0.10805157      -1.17219621       0.00000000
Si      -0.05154156      -1.31834970       3.28123346       0.00000000
Si      -2.08743318      -1.98027756       2.24925178       0.00000000
Si       2.13970779       1.43042490       2.73297813       0.00000000
Si       3.69499554       0.57542796      -0.39468048       0.00000000
