10
Lattice="16.28999089631971 0.0 0.0 0.0 16.28999089631971 0.0 0.0 0.0 34.433804113860816" Properties=species:S:1:pos:R:3:initial_magmoms:R:1 pbc="T T T"
Si      -0.84062916       0.63089541      -2.18172705       0.00000000
Si       0.94392405       1.83063762       1.28082946       0.00000000
Si      -1.88520912      -1.06122834       1.23407521       0.00000000
Si       1.84906161      -1.67834241      -0.10188968       0.00000000
Si      -0.42370290      -2.30611014       2.72227062       0.00000000
Si       2.31311484       0.43875486       2.72876140       0.00000000
Si       0.99357597      -3.52391796       1.20953767       0.00000000
Si       2.08350729       3.30128253      -0.40177385       0.00000000
Si       3.67036506      -0.87159645       1.26047218       0.00000000
Si       2.33699598      -2.40774345      -2.33760897       0.00000000
