10
Lattice="16.28999089631971 0.0 0.0 0.0 16.28999089631971 0.0 0.0 0.0 34.433804113860816" Properties=species:S:1:pos:R:3:initial_magmoms:R:1 pbc="T T T"
Si       0.90810234       1.62884429      -1.54996969       0.00000000
Si      -1.19270493       1.10697296       1.82223866       0.00000000
Si      -2.07221832      -0.59965119      -1.20284232       0.00000000
Si       1.57716522      -1.70320095       1.26010577       0.00000000
Si      -1.26315918      -0.13183497      -3.43931914       0.00000000
Si       0.41876703       2.29014498       3.05636824       0.00000000
Si      -2.34040059      -0.55713429       3.05217076       0.00000000
Si      -0.64648494       2.19142595      -3.24063598       0.00000000
Si       2.88914553       0.77056587      -2.68576935       0.00000000
Si       2.01013713       3.48927632      -0.55923973       0.00000000
