10
Lattice="16.28999089631971 0.0 0.0 0.0 16.28999089631971 0.0 0.0 0.0 34.433804113860816" Properties=species:S:1:pos:R:3:initial_magmoms:R:1 pbc="T T T"
Si       1.79584236       0.75269574      -1.35793226       0.00000000
Si      -1.95300810       1.39043295      -0.10388685       0.00000000
Si       0.83486250      -0.23179041       2.23864616       0.00000000
Si      -0.94804542      -1.94237936      -1.16190050       0.00000000
Si       2.57076792      -1.56307111       1.41175232       0.00000000
Si       0.37409985       2.00528271      -2.76424404       0.00000000
Si      -1.11863430       3.20163660      -1.39970049       0.00000000
Si      -2.34201330      -0.74632309      -2.75026391       0.00000000
Si      -3.01058748       1.32045111       2.03042483       0.00000000
Si      -0.76576032      -1.29901673       3.57168276       0.00000000
