10
Lattice="16.28999089631971 0.0 0.0 0.0 16.28999089631971 0.0 0.0 0.0 34.433804113860816" Properties=species:S:1:pos:R:3:initial_magmoms:R:1 pbc="T T T"
Si       0.83437380       1.81120365      -1.29581364       0.00000000
Si      -1.05757938      -0.06998184       2.13431167       0.00000000
Si       1.95300810      -1.39043295       0.10388685       0.00000000
Si      -1.83044214      -0.85406841      -1.34512288       0.00000000
Si      -1.45482732       2.20336911       1.52621035       0.00000000
Si      -0.38900520      -2.13675604      -2.64637706       0.00000000
Si       2.32710795       0.61484976      -2.66035719       0.00000000
Si       1.00496268      -3.33281231      -1.05801366       0.00000000
Si      -2.30703867      -2.05482875       1.97949720       0.00000000
Si       0.64770669       3.14421435       1.97336798       0.00000000
