10
Lattice="16.28999089631971 0.0 0.0 0.0 16.28999089631971 0.0 0.0 0.0 34.433804113860816" Properties=species:S:1:pos:R:3:initial_magmoms:R:1 pbc="T T T"
Si       1.84893848       0.20416257      -1.41412826       0.00000000
Si      -1.97814357       0.75616551       1.02433738       0.00000000
Si      -0.71156349      -1.66462623      -1.53530088       0.00000000
Si       0.97030963      -1.22546412       1.83769872       0.00000000
Si      -2.31218631      -2.73185255      -0.20226428       0.00000000
Si       2.90440016      -1.97988171       0.78454023       0.00000000
Si       0.86219942       0.37346454       3.54055459       0.00000000
Si      -1.46300490       0.83829969       3.29214898       0.00000000
Si      -3.59751618      -0.81932184       0.42815016       0.00000000
Si      -2.26878975       2.97422820       0.37367585       0.00000000
