10
Lattice="16.28999089631971 0.0 0.0 0.0 16.28999089631971 0.0 0.0 0.0 34.433804113860816" Properties=species:S:1:pos:R:3:initial_magmoms:R:1 pbc="T T T"
Si       1.34449515       1.34273583       1.39000392       0.00000000
Si      -1.37046141      -1.37357280       1.38831666       0.00000000
Si       1.36806678      -1.37010303      -1.49709311       0.00000000
Si      -1.32437700       1.47082410      -1.50791222       0.00000000
Si      -0.53540343      -2.12191911      -2.75529266       0.00000000
Si      -2.13337098      -0.24783606      -3.00252751       0.00000000
Si       2.68706808       2.69228088       0.01176259       0.00000000
Si      -2.74165587       2.68863192       0.00482074       0.00000000
Si       2.69700156      -2.73629646      -0.00152886       0.00000000
Si      -2.73689919      -2.70576900       0.04627562       0.00000000
