10
Lattice="16.28999089631971 0.0 0.0 0.0 16.28999089631971 0.0 0.0 0.0 34.433804113860816" Properties=species:S:1:pos:R:3:initial_magmoms:R:1 pbc="T T T"
Si       1.35677781       1.35557235      -1.35810443       0.00000000
Si      -1.36184400       1.35671265       1.35617613       0.00000000
Si      -1.35840681      -1.35928647      -1.35813886       0.00000000
Si       1.35967743      -1.36158336       1.36079027       0.00000000
Si       0.00283446       2.70645318       2.71221453       0.00000000
Si       2.71920825       0.01399311       2.70887445       0.00000000
Si      -0.00071676       2.71313208      -2.71545131       0.00000000
Si      -2.71578735       2.71336014      -0.00161839       0.00000000
Si       2.71643895       2.71278999      -0.00089528       0.00000000
Si       2.71414206      -0.00195480      -2.71524471       0.00000000
