10
Lattice="16.28999089631971 0.0 0.0 0.0 16.28999089631971 0.0 0.0 0.0 34.433804113860816" Properties=species:S:1:pos:R:3:initial_magmoms:R:1 pbc="T T T"
Si      -1.35297934       1.35676152       1.35352473       0.00000000
Si      -1.35498042      -1.35754344      -1.35724358       0.00000000
Si       1.35972956       1.35764118      -1.35717471       0.00000000
Si       1.35930602      -1.35728280       1.36278743       0.00000000
Si      -2.70754854       0.01581759       2.70918435       0.00000000
Si      -0.00202159       2.69242749       2.72567816       0.00000000
Si      -2.71031784       2.71461447      -0.00058537       0.00000000
Si      -2.71261473      -0.00013032      -2.71493480       0.00000000
Si       0.00263572       2.71498914      -2.71479707       0.00000000
Si       0.00285401      -2.71557232      -2.71527914       0.00000000
