10
Lattice="16.28999089631971 0.0 0.0 0.0 16.28999089631971 0.0 0.0 0.0 34.433804113860816" Properties=species:S:1:pos:R:3:initial_magmoms:R:1 pbc="T T T"
Si      -1.81558566       0.85742415      -1.17099103       0.00000000
Si      -0.87532686       0.60077520       2.12405039       0.00000000
Si      -0.04209336      -2.37203577      -0.23280708       0.00000000
Si       2.09954384       0.91709442      -0.77076670       0.00000000
Si      -0.49876722      -1.42602660       3.17858623       0.00000000
Si      -1.13241564       0.70610634      -3.35936381       0.00000000
Si       1.99099705       3.05856153       0.16893234       0.00000000
Si       2.23383697      -2.75687073      -1.00770584       0.00000000
Si      -0.83463444      -3.29540184       1.79634370       0.00000000
Si      -0.41321214      -1.59635484      -3.54248288       0.00000000
