10
Lattice="16.28999089631971 0.0 0.0 0.0 16.28999089631971 0.0 0.0 0.0 34.433804113860816" Properties=species:S:1:pos:R:3:initial_magmoms:R:1 pbc="T T T"
Si       0.37655964      -2.02680180       1.05453584       0.00000000
Si      -2.22130440       0.70120305       0.27306022       0.00000000
Si       0.99277776       1.86147459       1.05577546       0.00000000
Si       0.87532686      -0.60077520      -2.12405039       0.00000000
Si      -0.94025880       0.25664895      -3.29504142       0.00000000
Si       2.72303055      -1.90659789       1.45507007       0.00000000
Si       3.16789905       1.86649191       0.26551921       0.00000000
Si      -2.37312720       2.77102674      -0.81584058       0.00000000
Si      -0.85921605      -1.98384507       3.08168946       0.00000000
Si      -2.40078762       1.31437494       2.60323148       0.00000000
