10
Lattice="16.28999089631971 0.0 0.0 0.0 16.28999089631971 0.0 0.0 0.0 34.433804113860816" Properties=species:S:1:pos:R:3:initial_magmoms:R:1 pbc="T T T"
Si      -1.32084207      -1.27467621       1.46011949       0.00000000
Si      -1.62873936       0.44069337      -1.75009907       0.00000000
Si       1.32010806       1.40732568       1.51517229       0.00000000
Si       0.55507753       0.32423616      -2.90611139       0.00000000
Si      -3.22431228      -2.02649229       0.20191994       0.00000000
Si       3.05904113      -1.53158580      -1.76418251       0.00000000
Si       2.81127023       0.92629827      -2.49307768       0.00000000
Si       0.00809271      -2.64086964       2.95568374       0.00000000
Si      -2.68890885       0.09542682       2.95721260       0.00000000
Si       2.72973878       0.08449623       2.96818322       0.00000000
