10
Lattice="16.28999089631971 0.0 0.0 0.0 16.28999089631971 0.0 0.0 0.0 34.433804113860816" Properties=species:S:1:pos:R:3:initial_magmoms:R:1 pbc="T T T"
Si       1.24991541      -1.46627919       1.33258896       0.00000000
Si      -1.35091341      -1.35482301      -1.35634830       0.00000000
Si      -1.24266636       1.40621796       1.42256454       0.00000000
Si       1.36772469       1.35806472      -1.35448888       0.00000000
Si      -2.68457571       2.72777679       0.01542635       0.00000000
Si      -2.71077003       0.00179190      -2.71393622       0.00000000
Si      -2.70642060      -2.71884987      -0.00223820       0.00000000
Si       0.00718389      -2.71251306      -2.71534801       0.00000000
Si       0.00493587       2.71995759      -2.71386735       0.00000000
Si       2.71984423       0.00236205      -2.71510697       0.00000000
