10
Lattice="16.28999089631971 0.0 0.0 0.0 16.28999089631971 0.0 0.0 0.0 34.433804113860816" Properties=species:S:1:pos:R:3:initial_magmoms:R:1 pbc="T T T"
Si      -1.69077168      -1.62438993      -0.23797215       0.00000000
Si       1.85305266      -0.29120004      -1.49859443       0.00000000
Si       0.56130453      -0.36535212       2.30716947       0.00000000
Si      -1.42527726       1.93302027      -0.41389456       0.00000000
Si       1.67513328      -2.53394208       1.63364388       0.00000000
Si      -1.26587961       2.77790112       1.76824570       0.00000000
Si      -1.55528775       0.85499694       3.12765861       0.00000000
Si       3.35164699       1.43049006      -0.69728492       0.00000000
Si      -3.69499554      -0.57542796       0.39468048       0.00000000
Si      -1.72905318      -2.30270553      -2.45633679       0.00000000
