10
Lattice="16.28999089631971 0.0 0.0 0.0 16.28999089631971 0.0 0.0 0.0 34.433804113860816" Properties=species:S:1:pos:R:3:initial_magmoms:R:1 pbc="T T T"
Si       2.17512129       0.00501732      -0.79025625       0.00000000
Si       0.65502090      -0.63697158       2.15373235       0.00000000
Si      -0.99277776      -1.86147459      -1.05577546       0.00000000
Si      -1.11382875       2.16858996       0.67352558       0.00000000
Si      -1.67513328       2.53394208      -1.63364388       0.00000000
Si      -3.21408216      -1.16027154      -0.78271524       0.00000000
Si       1.87354615       0.59631174      -3.01089351       0.00000000
Si       3.27470444       1.49799582       0.61519469       0.00000000
Si      -1.57229451      -0.38084391       3.29669425       0.00000000
Si       2.35531964       1.03151538       2.71779281       0.00000000
