10
Lattice="16.28999089631971 0.0 0.0 0.0 16.28999089631971 0.0 0.0 0.0 34.433804113860816" Properties=species:S:1:pos:R:3:initial_magmoms:R:1 pbc="T T T"
Si       1.36164942       1.35433759      -1.39205618       0.00000000
Si      -1.35803214      -1.35993807      -1.39501749       0.00000000
Si       1.29806865      -1.53940500       1.37990104       0.00000000
Si      -1.31253417       1.49452460       1.56109182       0.00000000
Si       2.66425786      -0.15512967       2.69775232       0.00000000
Si      -2.68491780      -2.70871749      -0.02024709       0.00000000
Si      -2.70650205       2.69058087      -0.02727159       0.00000000
Si       2.70429380       2.70764139      -0.02827017       0.00000000
Si       0.00353493       2.70903907      -2.75053938       0.00000000
Si       2.73603975      -2.72460024      -0.02286406       0.00000000
