10
Lattice="16.28999089631971 0.0 0.0 0.0 16.28999089631971 0.0 0.0 0.0 34.433804113860816" Properties=species:S:1:pos:R:3:initial_magmoms:R:1 pbc="T T T"
Si       0.94236903      -0.46398807       2.04829598       0.00000000
Si       1.38764151       1.90473498      -0.05623043       0.00000000
Si       1.84562020      -0.12422754      -1.49322275       0.00000000
Si      -1.80928143      -1.53891630       0.28779790       0.00000000
Si       0.47943099      -1.50850287      -2.81107404       0.00000000
Si      -0.51647445      -3.01430160      -1.23228324       0.00000000
Si      -0.34826391       3.23601569       0.77066340       0.00000000
Si      -3.24232902      -0.03012021      -1.07058200       0.00000000
Si       2.78843165       1.06450263       1.66897298       0.00000000
Si      -0.62957592       0.64224954       3.41927866       0.00000000
