10
Lattice="16.28999089631971 0.0 0.0 0.0 16.28999089631971 0.0 0.0 0.0 34.433804113860816" Properties=species:S:1:pos:R:3:initial_magmoms:R:1 pbc="T T T"
Si      -0.07760393       1.02903930       2.08913450       0.00000000
Si       0.75893807      -2.20340169       0.29950540       0.00000000
Si      -2.34647091      -0.12020391      -0.40053423       0.00000000
Si       1.44578311       1.62776196      -1.00009597       0.00000000
Si      -1.07431965      -3.39292844      -0.67634916       0.00000000
Si      -2.72303055       1.90659789      -1.45507007       0.00000000
Si       2.17858876       1.63110141       2.50216821       0.00000000
Si      -1.07523189       3.13110090       1.75443773       0.00000000
Si      -2.68233813      -1.98957915      -1.78277677       0.00000000
Si       0.98147413      -2.67845067       2.63742427       0.00000000
