10
Lattice="16.28999089631971 0.0 0.0 0.0 16.28999089631971 0.0 0.0 0.0 34.433804113860816" Properties=species:S:1:pos:R:3:initial_magmoms:R:1 pbc="T T T"
Si       1.35754344      -1.35621578       1.35745018       0.00000000
Si      -1.35770879      -1.35786389      -1.35669264       0.00000000
Si       1.35676152       1.35817549      -1.35741575       0.00000000
Si      -1.35783443       1.35802888       1.35803556       0.00000000
Si       0.00122827      -2.71133433      -2.71472820       0.00000000
Si       0.00036815      -2.71179045       2.71624329       0.00000000
Si       2.71428867      -2.71439685       0.00024104       0.00000000
Si       2.71634121      -0.00081450       2.71328198       0.00000000
Si      -2.71551761      -2.71428282       0.00041321       0.00000000
Si       2.71482624       2.71534426       0.00048207       0.00000000
