10
Lattice="16.28999089631971 0.0 0.0 0.0 16.28999089631971 0.0 0.0 0.0 34.433804113860816" Properties=species:S:1:pos:R:3:initial_magmoms:R:1 pbc="T T T"
Si       1.36935125      -1.41252219      -1.29437086       0.00000000
Si      -1.33409710      -1.37241621       1.37418847       0.00000000
Si       1.38271393       1.34855136       1.37380969       0.00000000
Si      -1.43796214       1.27211868      -1.57837760       0.00000000
Si      -2.68387021       2.70391194      -0.01342575       0.00000000
Si      -2.68510825      -2.70860346      -0.00508932       0.00000000
Si       2.72562244       2.69156412       0.00667327       0.00000000
Si      -2.69009299      -0.01290168       2.73088111       0.00000000
Si       0.12960080       2.36203371      -3.02120097       0.00000000
Si       0.02377688       2.70202181       2.73184525       0.00000000
