10
Lattice="16.28999089631971 0.0 0.0 0.0 16.28999089631971 0.0 0.0 0.0 34.433804113860816" Properties=species:S:1:pos:R:3:initial_magmoms:R:1 pbc="T T T"
Si      -1.35873238       1.35533128       1.35741575       0.00000000
Si       1.35717529       1.35557467      -1.35879310       0.00000000
Si      -1.35805156      -1.36060596      -1.35841433       0.00000000
Si       1.35888574      -1.36511829       1.35762235       0.00000000
Si      -2.71684687       2.71003276      -0.00106745       0.00000000
Si       2.71597306       2.71097595      -0.00296131       0.00000000
Si       2.70988060       0.01462842       2.71720743       0.00000000
Si      -0.00036815       2.71179045      -2.71624329       0.00000000
Si      -0.01608800       2.70863508       2.72120176       0.00000000
Si       2.71392052      -0.00260640      -2.71600225       0.00000000
