10
Lattice="16.28999089631971 0.0 0.0 0.0 16.28999089631971 0.0 0.0 0.0 34.433804113860816" Properties=species:S:1:pos:R:3:initial_magmoms:R:1 pbc="T T T"
Si      -0.94236903       0.46398807      -2.04829598       0.00000000
Si      -1.57194495       1.10623761       1.37098268       0.00000000
Si       0.65240147      -2.13320808       0.79745292       0.00000000
Si       1.84606262       1.52849070      -0.37932300       0.00000000
Si       0.44527249       2.36872305      -2.10452642       0.00000000
Si      -2.75165046      -1.07492823      -1.76049809       0.00000000
Si       3.07320461      -0.01585017       1.85267743       0.00000000
Si      -0.22497142       2.04501306       2.98716861       0.00000000
Si       0.90325118       0.33976053      -3.54151873       0.00000000
Si      -1.38319272      -3.44157201       0.95481549       0.00000000
