10
Lattice="16.28999089631971 0.0 0.0 0.0 16.28999089631971 0.0 0.0 0.0 34.433804113860816" Properties=species:S:1:pos:R:3:initial_magmoms:R:1 pbc="T T T"
Si      -0.88633238      -1.92656943       0.98701111       0.00000000
Si       1.45813419      -0.63962685      -1.72813029       0.00000000
Si       0.96026292       1.37321900       1.68512245       0.00000000
Si      -1.84004184       1.42123638      -0.59363911       0.00000000
Si       2.45459349       1.54790905      -1.48471760       0.00000000
Si      -0.98437049       2.11219465       2.77071760       0.00000000
Si      -2.90891249       1.75813639       1.47955252       0.00000000
Si      -0.76772164      -3.59785827      -0.59670372       0.00000000
Si       2.49670314       2.83185590       0.54649921       0.00000000
Si       0.71026029       2.76097159      -2.53859919       0.00000000
