10
Lattice="10.86 0.0 0.0 0.0 10.86 0.0 0.0 0.0 10.86" Properties=species:S:1:pos:R:3:initial_magmoms:R:1 pbc="T T T"
Si       1.31154048       1.19932410       1.40417628       0.00000000
Si       1.31154048      -1.51567590      -1.31082372       0.00000000
Si      -1.21385478       1.09312416      -1.76381604       0.00000000
Si      -1.40345952      -1.51567590       1.40417628       0.00000000
Si       2.41809846       2.57229960      -0.11041362       0.00000000
Si      -0.04595952       2.55682410       2.76167628       0.00000000
Si      -2.94920676       2.34206760      -0.26696052       0.00000000
Si       2.66904048      -0.15817590       2.76167628       0.00000000
Si       2.72905284      -0.06257532      -2.72915058       0.00000000
Si      -2.92950672      -0.10412568      -2.53968702       0.00000000
