10
Lattice="10.86 0.0 0.0 0.0 10.86 0.0 0.0 0.0 10.86" Properties=species:S:1:pos:R:3:initial_magmoms:R:1 pbc="T T T"
Si       1.30744626       1.26324606       1.22582250       0.00000000
Si      -1.40755374      -1.45175394       1.22582250       0.00000000
Si      -1.40755374       1.26324606      -1.48917750       0.00000000
Si       0.97884438      -1.39888746      -1.88079996       0.00000000
Si       2.58158490      -0.18217650       2.42473392       0.00000000
Si      -0.05005374       2.62074606       2.58332250       0.00000000
Si       2.66494626       2.62074606      -0.13167750       0.00000000
Si      -2.76505374      -0.09425394       2.58332250       0.00000000
Si      -0.23830098      -3.02401044       2.26968570       0.00000000
Si      -2.76505374       2.62074606      -0.13167750       0.00000000
