10
Lattice="10.86 0.0 0.0 0.0 10.86 0.0 0.0 0.0 10.86" Properties=species:S:1:pos:R:3:initial_magmoms:R:1 pbc="T T T"
Si      -1.10655798      -1.37297550       1.51458990       0.00000000
Si       1.60844202      -1.37297550      -1.20041010       0.00000000
Si       1.60844202       1.34202450       1.51458990       0.00000000
Si      -2.41809846      -2.57229960       0.11041362       0.00000000
Si      -2.54741934       2.61160194      -0.00149868       0.00000000
Si       0.31095438      -2.63487492      -2.61873696       0.00000000
Si      -2.46405798      -0.01547550       2.87208990       0.00000000
Si       0.40291686       2.67742440      -2.65446636       0.00000000
Si       2.96594202      -0.01547550      -2.55791010       0.00000000
Si       0.25094202       2.69952450       2.87208990       0.00000000
