10
Lattice="10.86 0.0 0.0 0.0 10.86 0.0 0.0 0.0 10.86" Properties=species:S:1:pos:R:3:initial_magmoms:R:1 pbc="T T T"
Si      -1.13462022       1.30219002      -1.35945480       0.00000000
Si      -1.13462022      -1.41280998       1.35554520       0.00000000
Si       1.58037978      -1.41280998      -1.35945480       0.00000000
Si      -2.61741204       2.28687708      -0.17743068       0.00000000
Si      -2.49212022      -0.05530998      -2.71695480       0.00000000
Si      -2.49212022      -2.77030998      -0.00195480       0.00000000
Si       0.22287978       2.65969002      -2.71695480       0.00000000
Si       0.22287978      -2.77030998       2.71304520       0.00000000
Si       0.22287978      -2.77030998      -2.71695480       0.00000000
Si      -2.66066742      -0.00125976       2.84168190       0.00000000
