10
Lattice="16.290000149 0.0 0.0 0.0 16.290000149 0.0 0.0 0.0 29.1751946751" Properties=species:S:1:pos:R:3:initial_magmoms:R:1 pbc="T T T"
Si       1.22429125      -1.53161839       1.24300917       0.00000000
Si      -1.38693061      -1.35281935      -1.29278205       0.00000000
Si      -1.05951790       1.46047996       1.48320855       0.00000000
Si       1.37223703       1.31777956      -1.36242324       0.00000000
Si       0.76040092       2.20203335       2.86981802       0.00000000
Si      -2.37487025       0.10463067       2.86838844       0.00000000
Si      -0.02616174       2.60289767      -2.71836959       0.00000000
Si      -0.02621061      -2.69933447      -2.62824741       0.00000000
Si      -2.50971887       2.80689735       0.19795370       0.00000000
Si      -2.74255185       0.00224802      -2.59968490       0.00000000
