10
Lattice="16.290000149 0.0 0.0 0.0 16.290000149 0.0 0.0 0.0 29.1751946751" Properties=species:S:1:pos:R:3:initial_magmoms:R:1 pbc="T T T"
Si       1.36849033       1.34881201       1.33698247       0.00000000
Si       1.44233290      -1.33191277      -1.28189970       0.00000000
Si      -1.34954506      -1.38771090       1.33456093       0.00000000
Si      -1.37652130       1.33973848      -1.35863047       0.00000000
Si       0.11728800      -2.66795961      -2.61884425       0.00000000
Si       0.03401352       2.74374102      -2.61647230       0.00000000
Si       0.00330687       2.69509907       2.68758976       0.00000000
Si       2.69314427      -0.03554478       2.69526283       0.00000000
Si      -2.71176374      -0.02528208       2.68012091       0.00000000
Si      -2.79551064      -0.08995338      -2.59319050       0.00000000
