10
Lattice="16.290000149 0.0 0.0 0.0 16.290000149 0.0 0.0 0.0 29.1751946751" Properties=species:S:1:pos:R:3:initial_magmoms:R:1 pbc="T T T"
Si       1.07944057      -1.42280119      -1.49957583       0.00000000
Si      -1.54214173       1.31507542      -1.19338216       0.00000000
Si      -1.06997608      -1.76604779       1.15857616       0.00000000
Si       2.12854916       0.96710473       0.68173677       0.00000000
Si       0.23297958       0.80777224       3.39920193       0.00000000
Si       2.37058598      -2.71979471      -0.07279211       0.00000000
Si      -0.20378790       2.70000236      -2.50571159       0.00000000
Si      -1.33328764      -0.92708020       3.32506776       0.00000000
Si       2.49171842      -0.09637164      -2.74092201       0.00000000
Si       0.53672292      -3.54483435       1.08712610       0.00000000
