10
Lattice="16.290000149 0.0 0.0 0.0 16.290000149 0.0 0.0 0.0 29.1751946751" Properties=species:S:1:pos:R:3:initial_magmoms:R:1 pbc="T T T"
Si      -1.35562123      -1.31580847       1.39729343       0.00000000
Si       1.34420194       1.36930483       1.36143712       0.00000000
Si      -1.37370313       1.35040843      -1.36136126       0.00000000
Si       1.42983847      -1.37378458      -1.29025256       0.00000000
Si      -2.67651218      -2.65557953       0.00315967       0.00000000
Si      -2.54933615      -0.11380194      -2.81198695       0.00000000
Si       2.68664456      -0.00882918      -2.72014344       0.00000000
Si       2.71103069       2.71827974       0.00987872       0.00000000
Si      -0.00237834      -2.68356575       2.75181020       0.00000000
Si       2.80450272      -2.64062531       0.12390122       0.00000000
