10
Lattice="16.290000149 0.0 0.0 0.0 16.290000149 0.0 0.0 0.0 29.1751946751" Properties=species:S:1:pos:R:3:initial_magmoms:R:1 pbc="T T T"
Si       1.72219511      -0.76740562      -1.37126332       0.00000000
Si       1.35614251       1.34006428       1.34818575       0.00000000
Si      -1.44034878       1.18701973      -1.44256750       0.00000000
Si      -1.19280105      -1.69303601       1.19081475       0.00000000
Si      -1.67785698      -0.66883483      -2.87655749       0.00000000
Si       0.62604100      -0.87557122      -3.45609356       0.00000000
Si       2.56725515      -2.60755661      -0.24696802       0.00000000
Si      -2.65235688      -0.41524839       2.53821276       0.00000000
Si      -0.08781939       2.53568513       2.70458110       0.00000000
Si      -2.90180289       2.39461373      -0.10018762       0.00000000
