10
Lattice="16.290000149 0.0 0.0 0.0 16.290000149 0.0 0.0 0.0 29.1751946751" Properties=species:S:1:pos:R:3:initial_magmoms:R:1 pbc="T T T"
Si      -1.25680609      -1.36495540       1.42989088       0.00000000
Si      -1.45223722       1.41688792      -1.21555531       0.00000000
Si       0.95716783      -1.27202095      -1.75325415       0.00000000
Si       1.38820123       1.37946979       1.34034054       0.00000000
Si       2.35250408       0.16193889      -2.92781831       0.00000000
Si      -2.68664456       0.00882918       2.72014344       0.00000000
Si      -2.06681006      -3.22427973       0.25299387       0.00000000
Si       2.73693180       0.01692531       2.71573507       0.00000000
Si       0.02438613       2.72710892       2.73002216       0.00000000
Si      -0.18824724       2.90072775      -2.54156791       0.00000000
