10
Lattice="16.290000149 0.0 0.0 0.0 16.290000149 0.0 0.0 0.0 29.1751946751" Properties=species:S:1:pos:R:3:initial_magmoms:R:1 pbc="T T T"
Si      -1.37173204      -1.40639716      -1.31114200       0.00000000
Si      -1.34662915       1.27874872       1.46001427       0.00000000
Si       1.33837012      -1.33722982       1.42138631       0.00000000
Si       1.34179102       1.41833773      -1.35905934       0.00000000
Si       2.67239081      -0.02205666      -2.67232238       0.00000000
Si       0.05975172      -2.77809663      -2.59512190       0.00000000
Si      -2.67913487      -2.69487101       0.16098872       0.00000000
Si      -2.77982337       2.59882517       0.17811456       0.00000000
Si      -2.72046260      -0.04385268      -2.68653653       0.00000000
Si       2.68798034       2.75081088       0.03010880       0.00000000
