10
Lattice="16.290000149 0.0 0.0 0.0 16.290000149 0.0 0.0 0.0 29.1751946751" Properties=species:S:1:pos:R:3:initial_magmoms:R:1 pbc="T T T"
Si       1.67018114      -1.68594986      -0.25064410       0.00000000
Si      -1.86295700      -0.83712682      -1.25400822       0.00000000
Si      -0.62648083       0.32801544       2.33095218       0.00000000
Si       0.69066343       1.86077414      -1.42188229       0.00000000
H        2.20954304       0.78648121       1.12581241       0.00000000
H       -1.06047901       2.49917924       0.10829832       0.00000000
H       -2.60925077      -0.28629675       1.24405948       0.00000000
H        0.59085460      -1.62460171       2.55268366       0.00000000
H       -0.49461327       2.37350189      -2.22061159       0.00000000
H       -3.25949871       0.13677084       1.20744461       0.00000000
