10
Lattice="16.290000149 0.0 0.0 0.0 16.290000149 0.0 0.0 0.0 29.1751946751" Properties=species:S:1:pos:R:3:initial_magmoms:R:1 pbc="T T T"
H       -0.15615594       0.80127253       1.27206766       0.00000000
Si       1.08302437       1.15826788      -1.70893703       0.00000000
Si      -2.20921724       0.06537177      -0.81617607       0.00000000
Si       0.86690494      -2.06549057       0.81013681       0.00000000
H       -1.45391509      -1.87077620       1.71007486       0.00000000
H       -1.56087523       2.81986419       0.80961165       0.00000000
Si      -2.72885195      -1.92389789       0.87931119       0.00000000
Si       1.96436225      -0.61934581      -2.99375425       0.00000000
Si       0.71877997      -1.65814283       3.16060719       0.00000000
Si      -2.75762010       2.45045585      -0.08002756       0.00000000
