10
Lattice="16.290000149 0.0 0.0 0.0 16.290000149 0.0 0.0 0.0 29.1751946751" Properties=species:S:1:pos:R:3:initial_magmoms:R:1 pbc="T T T"
Si       1.36151821      -1.34096023       1.36332767       0.00000000
Si       1.35610993       1.37083609      -1.34485977       0.00000000
Si      -1.35736426       1.35236323       1.36347355       0.00000000
Si      -1.33455826      -1.40452381      -1.33782855       0.00000000
Si       2.70637175      -2.67113648      -0.02261078       0.00000000
Si      -2.76775248      -0.08444736      -2.61972826       0.00000000
Si       0.01052334      -2.73132803       2.69260789       0.00000000
Si       0.00983916       2.71599914      -2.70932528       0.00000000
Si      -2.72525186       2.70159878       0.02412789       0.00000000
Si       2.71391402       2.71883360       0.02176470       0.00000000
