10
Lattice="16.290000149 0.0 0.0 0.0 16.290000149 0.0 0.0 0.0 29.1751946751" Properties=species:S:1:pos:R:3:initial_magmoms:R:1 pbc="T T T"
Si       0.90380179       0.07029135      -1.21861871       0.00000000
H       -1.28984221      -1.76326220      -0.44182915       0.00000000
H        1.86751820       0.43456833       1.22317004       0.00000000
Si      -1.84528235      -2.01337886       0.93529839       0.00000000
Si       1.14064210       2.94622572       0.22193571       0.00000000
Si       0.04794147       1.50368104      -2.81327650       0.00000000
Si       1.22813569      -2.05008023      -2.15998554       0.00000000
Si       2.78660001       1.42156315      -0.83458562       0.00000000
Si      -2.69397506      -0.13954014       2.05629690       0.00000000
H       -2.93048958      -0.95840587      -1.56075621       0.00000000
