10
Lattice="16.290000149 0.0 0.0 0.0 16.290000149 0.0 0.0 0.0 29.1751946751" Properties=species:S:1:pos:R:3:initial_magmoms:R:1 pbc="T T T"
Si       1.37091754      -1.34560288      -1.33803278       0.00000000
Si       1.37828062       1.33496551       1.34477225       0.00000000
Si      -1.34938216      -1.36565587       1.35533367       0.00000000
Si      -1.34558659       1.35863488      -1.36945446       0.00000000
Si      -0.00094482       2.70117524       2.65552622       0.00000000
Si      -0.01479132      -2.69586470      -2.66238239       0.00000000
Si      -2.71977842      -0.00573408       2.68435131       0.00000000
Si       2.74190025       0.01233153      -2.67510278       0.00000000
Si      -2.69259041       0.00175932      -2.73141090       0.00000000
Si       2.73408105       2.69017949      -0.01324554       0.00000000
