10
Lattice="16.290000149 0.0 0.0 0.0 16.290000149 0.0 0.0 0.0 29.1751946751" Properties=species:S:1:pos:R:3:initial_magmoms:R:1 pbc="T T T"
Si       1.53652168      -1.27112500      -1.19915885       0.00000000
Si       1.39504303       1.32214528       1.36397828       0.00000000
Si      -1.21759606      -1.43389468       1.44117876       0.00000000
Si      -1.47108475       1.20891349      -1.45309975       0.00000000
H        0.35481249      -1.80788051      -2.25127472       0.00000000
Si      -2.67090842       2.68253948      -0.02546994       0.00000000
Si       2.85451025       2.50128065      -0.05172762       0.00000000
Si      -2.64907982      -0.06219522       2.72515866       0.00000000
Si      -0.13691745       2.53876394      -2.84971632       0.00000000
Si       0.06444324       2.76253968       2.67724132       0.00000000
