10
Lattice="16.290000149 0.0 0.0 0.0 16.290000149 0.0 0.0 0.0 29.1751946751" Properties=species:S:1:pos:R:3:initial_magmoms:R:1 pbc="T T T"
Si       0.81019945      -0.98363908      -1.94508105       0.00000000
Si      -1.33416730      -1.32985045       1.39661657       0.00000000
Si       1.58943160       1.13295322       1.33890803       0.00000000
Si      -1.49850082       1.31157307      -1.29400741       0.00000000
H        1.25685496       0.30217950      -2.60899178       0.00000000
H        0.68786155       1.87501160       2.31621871       0.00000000
Si      -2.53325792       2.80007184       0.17435096       0.00000000
Si      -1.06341121      -1.69712480      -3.22035799       0.00000000
Si      -2.53399097       0.14377554       2.82424637       0.00000000
Si      -2.89659009      -2.45594558      -0.06867841       0.00000000
