10
Lattice="16.290000149 0.0 0.0 0.0 16.290000149 0.0 0.0 0.0 29.1751946751" Properties=species:S:1:pos:R:3:initial_magmoms:R:1 pbc="T T T"
Si      -0.83443897       1.24402333      -1.71329872       0.00000000
Si      -1.83161504      -1.02190429       0.94340034       0.00000000
Si       1.03943233       1.85352672       0.95246216       0.00000000
Si       1.74641834      -1.54192996      -0.45104968       0.00000000
H       -1.01193481       2.63062325      -1.10024035       0.00000000
Si      -0.42564141      -2.38609406       2.19695051       0.00000000
Si       1.50096061      -1.02714967      -2.74951411       0.00000000
Si       2.45552204       0.51098505       2.20794372       0.00000000
Si       1.06166818       1.26135915      -3.05130232       0.00000000
Si       0.99569368      -0.92615167       3.42176894       0.00000000
