10
Lattice="16.290000149 0.0 0.0 0.0 16.290000149 0.0 0.0 0.0 29.1751946751" Properties=species:S:1:pos:R:3:initial_magmoms:R:1 pbc="T T T"
Si       1.27481078      -1.35930277      -1.42144466       0.00000000
Si       1.35615978       1.40884066       1.31556788       0.00000000
Si      -1.39232000       1.35534430      -1.35049059       0.00000000
Si      -1.30217114      -1.35018037       1.44516409       0.00000000
Si       2.62469630      -2.69136866      -0.04428795       0.00000000
Si      -0.08825661       2.64784178       2.68102534       0.00000000
Si      -2.72477685      -2.62650188       0.04192475       0.00000000
Si       2.61238106       0.01050705      -2.78582264       0.00000000
Si      -0.03902823       2.70229925      -2.74623190       0.00000000
Si      -0.10612674      -2.72031599      -2.75466353       0.00000000
