10
Lattice="16.290000149 0.0 0.0 0.0 16.290000149 0.0 0.0 0.0 29.1751946751" Properties=species:S:1:pos:R:3:initial_magmoms:R:1 pbc="T T T"
Si      -1.35562123       1.35506737      -1.30690285       0.00000000
Si       1.38693061       1.35281935       1.29278205       0.00000000
Si       1.36072000      -1.34651512      -1.33546536       0.00000000
Si      -1.34128603      -1.30989520       1.39676245       0.00000000
H       -0.43223886      -2.19822149       2.21325944       0.00000000
Si       2.61122186      -0.17879904       2.53579122       0.00000000
Si      -2.66734091      -0.07257195      -2.63008545       0.00000000
Si      -2.55814904       2.75333583       0.16834087       0.00000000
Si       2.60325605      -2.73365750       0.04137043       0.00000000
Si       0.01519857       2.60908787      -2.74080531       0.00000000
