10
Lattice="16.290000149 0.0 0.0 0.0 16.290000149 0.0 0.0 0.0 29.1751946751" Properties=species:S:1:pos:R:3:initial_magmoms:R:1 pbc="T T T"
Si       1.25177248      -1.64410085       1.16053089       0.00000000
Si       1.30849426       1.29720529      -1.49315729       0.00000000
Si      -0.98997589       1.76502152       1.27209684       0.00000000
Si      -1.30341178      -1.67415590      -1.17246355       0.00000000
H        0.21546783      -2.74844883       1.37523115       0.00000000
H       -3.05455422      -1.03575079       0.35771706       0.00000000
H       -2.48868848      -1.16142814      -1.97119285       0.00000000
H       -0.30028986      -1.20761029       3.19173712       0.00000000
H       -1.86173525       0.49756176      -3.07725366       0.00000000
Si      -2.51807564       2.76583026      -0.22709972       0.00000000
