10
Lattice="16.290000149 0.0 0.0 0.0 16.290000149 0.0 0.0 0.0 29.1751946751" Properties=species:S:1:pos:R:3:initial_magmoms:R:1 pbc="T T T"
Si      -1.30781008       1.42504921       1.30062639       0.00000000
Si       1.26398998       1.48383982      -1.32601260       0.00000000
Si       1.45223722      -1.41688792       1.21555531       0.00000000
Si      -1.37762902      -1.02879496      -1.63077668       0.00000000
Si       0.33821298      -1.46795707      -3.15573493       0.00000000
Si      -0.42762879       2.41101776      -2.63726255       0.00000000
Si       2.23889762       0.02629206      -2.83404924       0.00000000
Si      -2.22268907       0.81135604      -2.75507198       0.00000000
Si       2.40940505      -2.68890887      -0.53769884       0.00000000
Si      -2.60811047      -0.05765031       2.57433749       0.00000000
