10
Lattice="16.290000149 0.0 0.0 0.0 16.290000149 0.0 0.0 0.0 29.1751946751" Properties=species:S:1:pos:R:3:initial_magmoms:R:1 pbc="T T T"
Si      -1.35394173       1.40758633      -1.31670571       0.00000000
Si       1.17563302       1.46421037       1.45062569       0.00000000
Si      -1.48594449      -1.20317941       1.43346776       0.00000000
Si       1.00699894      -1.23932692      -1.84101313       0.00000000
Si      -2.46228239      -0.30165822      -2.56295333       0.00000000
Si      -1.04852215      -2.25100109      -2.56639600       0.00000000
Si       2.40611447       0.49306572      -2.75448848       0.00000000
Si      -0.12717603      -2.54177759       2.81514663       0.00000000
Si       2.54933615       0.11380194       2.81198695       0.00000000
Si       2.47593341       2.94690990       0.17691459       0.00000000
