10
Lattice="16.290000149 0.0 0.0 0.0 16.290000149 0.0 0.0 0.0 29.1751946751" Properties=species:S:1:pos:R:3:initial_magmoms:R:1 pbc="T T T"
Si       1.35876846      -1.33859818       1.38167887       0.00000000
Si      -1.50587694      -1.38546451      -1.16774067       0.00000000
Si      -1.39979645       1.34907265       1.36911603       0.00000000
Si       1.48594449       1.20317941      -1.43346776       0.00000000
Si      -2.64554164       0.11614770      -2.55020668       0.00000000
Si      -0.24300934      -2.81313642      -2.49430701       0.00000000
Si       2.66157751       2.66738978       0.01715793       0.00000000
Si       0.13200276       2.61076574      -2.75017347       0.00000000
Si      -0.01504870      -2.70040961       2.74234868       0.00000000
Si       2.67965941       0.00117288       2.77581263       0.00000000
