10
Lattice="16.290000149 0.0 0.0 0.0 16.290000149 0.0 0.0 0.0 29.1751946751" Properties=species:S:1:pos:R:3:initial_magmoms:R:1 pbc="T T T"
Si      -1.36081774       1.35120664       1.35244532       0.00000000
Si      -1.35985663      -1.34284987      -1.36367777       0.00000000
Si       1.32349735      -1.36549297       1.39191936       0.00000000
Si       1.35521398       1.37753128      -1.35620892       0.00000000
Si       2.69456150      -2.70382237       0.02526572       0.00000000
Si       2.69715161       0.01689273       2.70159385       0.00000000
Si       0.01241298       2.71533125       2.68394286       0.00000000
Si       0.00236205      -2.70527870      -2.70923775       0.00000000
Si      -2.72445365      -2.69055254      -0.01499605       0.00000000
Si      -2.71521722       2.70321149      -0.01607553       0.00000000
