10
Lattice="16.290000149 0.0 0.0 0.0 16.290000149 0.0 0.0 0.0 29.1751946751" Properties=species:S:1:pos:R:3:initial_magmoms:R:1 pbc="T T T"
Si      -1.32955153       1.40879179      -1.31063727       0.00000000
Si       1.33511294       1.37652130       1.34413039       0.00000000
Si       1.35075622      -1.32618520      -1.40563170       0.00000000
Si      -1.38480721      -1.33112107       1.36779148       0.00000000
Si      -2.71928402       0.06380793      -2.58566330       0.00000000
Si       2.64478497      -2.68081274       0.02430294       0.00000000
Si       2.67817947       0.01583388       2.70424879       0.00000000
Si       2.66641809       2.73466749      -0.03757765       0.00000000
Si      -0.05463096       2.73628020       2.66614599       0.00000000
Si      -2.75329754      -2.67993308       0.03080901       0.00000000
