10
Lattice="16.290000149 0.0 0.0 0.0 16.290000149 0.0 0.0 0.0 29.1751946751" Properties=species:S:1:pos:R:3:initial_magmoms:R:1 pbc="T T T"
Si      -0.83885356      -0.93398716      -0.81541752       0.00000000
H        1.43804863       0.91165357       0.54306707       0.00000000
H        0.81109540      -0.74733634       1.64912788       0.00000000
Si       2.08831286       1.73752400      -0.53273905       0.00000000
Si      -1.08089038       2.75291229      -0.06088863       0.00000000
Si      -0.78843601       1.87090652       2.18221704       0.00000000
Si      -2.12999897       0.36300636      -2.24220124       0.00000000
Si       0.58880206      -2.37856808      -1.93854581       0.00000000
Si      -2.67271661      -1.75902680       0.34450070       0.00000000
Si       1.99637210      -1.26006409       2.44785718       0.00000000
