10
Lattice="16.290000149 0.0 0.0 0.0 16.290000149 0.0 0.0 0.0 29.1751946751" Properties=species:S:1:pos:R:3:initial_magmoms:R:1 pbc="T T T"
Si      -1.35376417      -1.35651718       1.33170176       0.00000000
Si      -1.37679823       1.34550677      -1.33388990       0.00000000
Si       1.30305340       1.31322976       1.45015305       0.00000000
Si       1.34644996      -1.38569257      -1.34118370       0.00000000
Si       0.03932406      -2.80618059       2.52835155       0.00000000
Si       2.67115277       2.67056633       0.07302551       0.00000000
Si      -0.01220121       2.69320943      -2.68257162       0.00000000
Si       2.71099811      -0.02244762      -2.67749514       0.00000000
Si      -2.72689715      -0.02493999      -2.68400121       0.00000000
Si      -2.65618226      -0.00980658       2.76356197       0.00000000
