10
Lattice="16.290000149 0.0 0.0 0.0 16.290000149 0.0 0.0 0.0 29.1751946751" Properties=species:S:1:pos:R:3:initial_magmoms:R:1 pbc="T T T"
Si       1.83161504       1.02190429      -0.94340034       0.00000000
Si       1.40597362      -1.36418977       1.25355017       0.00000000
Si      -1.32058144       1.48850152       1.20849491       0.00000000
Si      -1.30339549      -1.18449478      -1.55264376       0.00000000
Si       0.99717607       2.26592762      -2.65669906       0.00000000
Si      -2.67118535       0.09356976       2.51798852       0.00000000
Si      -2.62578512      -2.58747104      -0.21048736       0.00000000
Si       0.04971708      -2.70469388       2.56796562       0.00000000
Si       2.74421343      -2.51786387      -0.30319738       0.00000000
Si       2.82730872       0.09575262       2.47836860       0.00000000
