10
Lattice="16.290000149 0.0 0.0 0.0 16.290000149 0.0 0.0 0.0 29.1751946751" Properties=species:S:1:pos:R:3:initial_magmoms:R:1 pbc="T T T"
Si       1.38989539       1.27351963       1.37586571       0.00000000
Si      -1.63150705       1.18115533      -1.21870769       0.00000000
Si       1.25214715      -1.34212008      -1.48315166       0.00000000
Si      -1.33478469      -1.40837151       1.35070502       0.00000000
Si      -2.96611581      -0.79693939      -1.70339520       0.00000000
Si      -2.68205339      -2.62082221      -0.13085221       0.00000000
Si      -0.02972925       2.65569356       2.65727819       0.00000000
Si       2.61094493      -2.73122557      -0.09012364       0.00000000
Si       2.59304222      -0.12515607       2.81501971       0.00000000
Si      -2.76664244      -0.10099800       2.70118686       0.00000000
