10
Lattice="16.290000149 0.0 0.0 0.0 16.290000149 0.0 0.0 0.0 29.1751946751" Properties=species:S:1:pos:R:3:initial_magmoms:R:1 pbc="T T T"
Si       1.34918668       1.36127386       1.34754389       0.00000000
Si      -1.34306653       1.36068742      -1.36011840       0.00000000
Si       1.36036162      -1.35444835      -1.35194935       0.00000000
Si      -1.36847567      -1.36234900       1.34553080       0.00000000
Si      -0.03339450      -2.69664662      -2.67994586       0.00000000
Si      -2.67817947      -0.01583388      -2.70424879       0.00000000
Si      -0.04344543       2.70622514       2.67915813       0.00000000
Si       2.69333975      -0.01568727       2.69386243       0.00000000
Si       2.69731451       2.71269227      -0.02546995       0.00000000
Si       2.68985369      -2.72249885       0.02223150       0.00000000
