10
Lattice="16.290000149 0.0 0.0 0.0 16.290000149 0.0 0.0 0.0 29.1751946751" Properties=species:S:1:pos:R:3:initial_magmoms:R:1 pbc="T T T"
Si      -2.27264561       0.48369897      -0.10494318       0.00000000
Si       0.29249184      -0.82890037      -2.15680544       0.00000000
Si       1.28567686       1.98821732       0.13645239       0.00000000
Si       1.00571692      -1.53341029       1.50946622       0.00000000
Si      -2.55837222       1.21895302       2.10277298       0.00000000
Si       1.10801812       0.95107537      -3.42700589       0.00000000
Si       2.55147503      -0.23540679       2.70950033       0.00000000
Si       3.33815172       1.29337877       1.04493877       0.00000000
Si       1.89254452      -2.52451019      -1.98831869       0.00000000
Si       2.34568346      -2.92982169       0.22187736       0.00000000
