10
Lattice="16.290000149 0.0 0.0 0.0 16.290000149 0.0 0.0 0.0 29.1751946751" Properties=species:S:1:pos:R:3:initial_magmoms:R:1 pbc="T T T"
H       -0.88290172       0.85789657      -0.88015727       0.00000000
Si       1.03475710      -1.48849876      -1.46835837       0.00000000
Si      -1.39823587      -1.23113305       1.42520826       0.00000000
Si       1.89586280       1.30363984       0.62890050       0.00000000
Si       1.95934493       0.34101486      -2.64111367       0.00000000
Si       0.03618009       1.84489139      -2.93791293       0.00000000
H       -2.75041992       0.42332823      -2.10332731       0.00000000
Si       2.14132052       0.78885955       2.92736493       0.00000000
Si      -0.00073305      -2.65629629       2.64989541       0.00000000
Si       2.53325792      -2.80007184      -0.17435096       0.00000000
