10
Lattice="16.290000149 0.0 0.0 0.0 16.290000149 0.0 0.0 0.0 29.1751946751" Properties=species:S:1:pos:R:3:initial_magmoms:R:1 pbc="T T T"
Si       1.29541339       1.34817507      -1.42570424       0.00000000
Si       1.45077112      -1.34664328       1.28464217       0.00000000
Si      -1.35355240      -1.35648623      -1.37846960       0.00000000
Si      -1.42631983       1.34356500       1.34955698       0.00000000
Si      -0.19994346      -2.50071213       2.37646548       0.00000000
Si       2.58942584       2.77149755      -0.09735762       0.00000000
Si       2.72091872      -0.02641586      -2.71221362       0.00000000
Si      -0.11258019       2.80811747       2.63487018       0.00000000
Si      -2.74340544      -2.70554259      -0.05741678       0.00000000
Si      -2.77620536       2.67563090      -0.02759973       0.00000000
