10
Lattice="16.290000149 0.0 0.0 0.0 16.290000149 0.0 0.0 0.0 29.1751946751" Properties=species:S:1:pos:R:3:initial_magmoms:R:1 pbc="T T T"
Si      -1.41338557      -1.29743335      -1.34146757       0.00000000
Si      -1.38210877       1.35583300       1.32458593       0.00000000
Si       1.32238963       1.40297626      -1.34215640       0.00000000
Si       1.37104786      -1.41226156       1.30348351       0.00000000
Si       2.62578512       2.58747104       0.21048736       0.00000000
Si       2.66426210       0.04745277      -2.68611933       0.00000000
Si      -0.10557549      -2.72248256      -2.64209396       0.00000000
Si      -2.69431715       0.19634337      -2.67771687       0.00000000
Si      -2.73549827      -0.04131144       2.64477224       0.00000000
Si      -0.04540023       2.68104080       2.72847588       0.00000000
