10
Lattice="16.290000149 0.0 0.0 0.0 16.290000149 0.0 0.0 0.0 29.1751946751" Properties=species:S:1:pos:R:3:initial_magmoms:R:1 pbc="T T T"
Si       2.24529959      -0.50686335       0.27745610       0.00000000
Si      -1.57275064      -1.68737523      -0.44285028       0.00000000
Si      -0.72930331       0.63301312       2.17944393       0.00000000
Si      -0.07151310       1.46021932      -1.93212727       0.00000000
H        0.26757954      -1.11034270      -2.82485905       0.00000000
Si      -2.82649422      -0.58404538      -2.04876970       0.00000000
Si      -1.30013749       3.31148010      -1.26632015       0.00000000
Si       1.31499397      -2.22328691      -2.84361870       0.00000000
Si       3.17852275      -1.32089421      -1.71818556       0.00000000
H       -0.00433314       3.86375998      -0.34587193       0.00000000
