10
Lattice="16.290000149 0.0 0.0 0.0 16.290000149 0.0 0.0 0.0 29.1751946751" Properties=species:S:1:pos:R:3:initial_magmoms:R:1 pbc="T T T"
Si      -0.12527010       2.30540155       0.23319733       0.00000000
Si       1.59365071       0.07250679      -1.79646261       0.00000000
Si       0.29245437      -0.88200577       2.24310567       0.00000000
Si      -2.12854916      -0.96710473      -0.68173677       0.00000000
H        1.08089038      -2.75291229       0.06088863       0.00000000
H        2.51893901      -1.84125872       0.60395571       0.00000000
Si      -1.86404843       1.98306480       1.73315244       0.00000000
Si      -1.89556958      -0.15933249       2.71746516       0.00000000
Si       3.16920324      -1.01538829      -0.47185042       0.00000000
Si      -1.04910859      -2.38990592      -2.18131261       0.00000000
