10
Lattice="16.290000149 0.0 0.0 0.0 16.290000149 0.0 0.0 0.0 29.1751946751" Properties=species:S:1:pos:R:3:initial_magmoms:R:1 pbc="T T T"
Si      -1.19674486      -0.36940833      -0.88963921       0.00000000
H        1.40471929      -2.01859166       0.46245601       0.00000000
Si      -0.34740054       1.10943046      -2.52759299       0.00000000
Si       0.06680529       2.90167257      -1.01882697       0.00000000
Si      -1.96472877      -2.48259602       0.28399134       0.00000000
Si       2.00801945       1.16968717       2.19029857       0.00000000
Si      -1.44661717      -1.57437964       2.37839105       0.00000000
Si       0.60890392      -0.56270548       3.10377391       0.00000000
Si      -0.64834201      -2.75449242      -1.62578772       0.00000000
H        3.12398220       0.64306405      -0.73538996       0.00000000
