10
Lattice="16.290000149 0.0 0.0 0.0 16.290000149 0.0 0.0 0.0 29.1751946751" Properties=species:S:1:pos:R:3:initial_magmoms:R:1 pbc="T T T"
Si       1.18170919       0.53675550       1.05211587       0.00000000
Si      -1.29580435      -0.55227988      -0.92044822       0.00000000
Si      -0.06717996      -2.40354065      -1.58625533       0.00000000
Si      -0.35481249       1.80788051       2.25127472       0.00000000
Si       2.85091293       1.32212899      -0.39409853       0.00000000
Si      -3.08226351      -1.14080500       0.52025207       0.00000000
Si       2.32137389      -0.96485671       2.43458189       0.00000000
Si      -2.32055939       0.78252274      -2.53727916       0.00000000
Si      -1.82589725       3.01679400       0.79817498       0.00000000
H       -0.33780573       0.69690250      -3.59706810       0.00000000
