10
Lattice="16.290000149 0.0 0.0 0.0 16.290000149 0.0 0.0 0.0 29.1751946751" Properties=species:S:1:pos:R:3:initial_magmoms:R:1 pbc="T T T"
Si      -1.34596126      -1.33088650       1.34539076       0.00000000
Si       1.31618314      -1.32232121      -1.40016136       0.00000000
Si      -1.20314683       1.39867570      -1.43915400       0.00000000
Si       1.42934977       1.40423059       1.24103109       0.00000000
Si       2.30611016       0.46722978      -2.54749047       0.00000000
Si       0.67357522       2.20332026      -2.62805077       0.00000000
Si      -2.64738566      -2.65737143      -0.07973872       0.00000000
Si      -2.70255989       0.06441066       2.63286293       0.00000000
Si       2.69892722      -2.64705711      -0.03552372       0.00000000
Si       0.05136237       2.75286342       2.59090900       0.00000000
