10
Lattice="16.290000149 0.0 0.0 0.0 16.290000149 0.0 0.0 0.0 29.1751946751" Properties=species:S:1:pos:R:3:initial_magmoms:R:1 pbc="T T T"
Si       1.28044125      -1.37415599       1.38457597       0.00000000
Si      -1.34726870      -1.21245070      -1.48155723       0.00000000
Si      -1.43185775       1.30737351       1.35048183       0.00000000
Si       1.33478469       1.40837151      -1.35070502       0.00000000
Si      -1.63133111       0.61143212      -3.05410022       0.00000000
Si      -0.29672235       2.58952684      -2.56941271       0.00000000
Si       2.61065008      -2.68836805      -0.03390158       0.00000000
Si      -2.82397089      -2.52108604      -0.11008384       0.00000000
Si      -0.06876172       2.70225364       2.66724298       0.00000000
Si       2.58186565      -0.04767106       2.80970545       0.00000000
