10
Lattice="16.290000149 0.0 0.0 0.0 16.290000149 0.0 0.0 0.0 29.1751946751" Properties=species:S:1:pos:R:3:initial_magmoms:R:1 pbc="T T T"
Si      -1.41388405       1.31036761       1.31314634       0.00000000
Si       1.36887152      -1.23986449       1.44714801       0.00000000
Si       1.32847232       1.38556225      -1.35918479       0.00000000
Si      -1.39172965      -1.37398006      -1.31168758       0.00000000
Si       2.57139933      -2.63813294      -0.02809571       0.00000000
Si      -0.12901029       2.71337645       2.63694162       0.00000000
Si       2.63281263       0.03352482      -2.77056401       0.00000000
Si      -2.72941559      -0.00487071      -2.68630605       0.00000000
Si       0.00345837      -2.66743865       2.75011220       0.00000000
Si      -2.72988800       2.69491988      -0.02018923       0.00000000
