10
Lattice="16.290000149 0.0 0.0 0.0 16.290000149 0.0 0.0 0.0 29.1751946751" Properties=species:S:1:pos:R:3:initial_magmoms:R:1 pbc="T T T"
Si      -1.28487376      -1.40300884      -1.32379528       0.00000000
Si       1.42565194      -1.21821508       1.38077444       0.00000000
Si      -1.31408173       1.32287833       1.42316600       0.00000000
Si       1.39478239       1.34431597      -1.32417456       0.00000000
Si       2.08225298       0.62872885       2.72665534       0.00000000
Si       0.48220029       2.32433867       2.55816859       0.00000000
Si      -2.60087771      -0.01845657      -2.65713086       0.00000000
Si      -2.60224607      -2.72668538       0.11964747       0.00000000
Si       0.12901029      -2.71337645      -2.63694162       0.00000000
Si       0.10598437      -2.70534548       2.64808654       0.00000000
