10
Lattice="16.290000149 0.0 0.0 0.0 16.290000149 0.0 0.0 0.0 29.1751946751" Properties=species:S:1:pos:R:3:initial_magmoms:R:1 pbc="T T T"
H       -1.18170919      -0.53675550      -1.05211587       0.00000000
Si      -1.53652168       1.27112500       1.19915885       0.00000000
Si       1.13966470      -1.50161221       1.38246602       0.00000000
Si       1.66920374       0.78537349      -1.44621440       0.00000000
Si      -2.47751354      -1.08903538      -1.97256409       0.00000000
Si       3.08296398      -1.16396938      -1.44965707       0.00000000
Si      -0.14147865       2.59327028       2.56313713       0.00000000
Si       2.64554164      -0.11614770       2.55020668       0.00000000
Si       2.77754439       2.49461804      -0.19996678       0.00000000
Si       2.40253230      -2.92928412       0.05589967       0.00000000
