10
Lattice="16.290000149 0.0 0.0 0.0 16.290000149 0.0 0.0 0.0 29.1751946751" Properties=species:S:1:pos:R:3:initial_magmoms:R:1 pbc="T T T"
Si       1.57555252      -1.08789508       1.32461219       0.00000000
Si      -1.23048145      -1.13598316      -1.62619618       0.00000000
Si      -1.59365071      -0.07250679       1.79646261       0.00000000
Si       1.29371923       1.59172849      -1.27510188       0.00000000
H        0.92528830      -1.91376551       2.40041832       0.00000000
H       -0.51276033      -2.82541908       1.85735124       0.00000000
Si      -1.71892082       2.23289476       2.02965994       0.00000000
Si      -2.64275930      -2.46241271      -0.38484999       0.00000000
Si       2.80872183      -2.45545688      -0.09578216       0.00000000
Si       0.12771360      -2.50854599      -2.88846097       0.00000000
