10
Lattice="16.290000149 0.0 0.0 0.0 16.290000149 0.0 0.0 0.0 29.1751946751" Properties=species:S:1:pos:R:3:initial_magmoms:R:1 pbc="T T T"
Si       1.05951790      -1.46047996      -1.48320855       0.00000000
Si      -1.31535235      -1.35584929       1.38517989       0.00000000
Si      -1.45020097       1.34641738      -1.28525485       0.00000000
Si       1.81991882       0.74155339       1.38660948       0.00000000
Si       2.16324686      -1.20225088       2.75641404       0.00000000
Si       0.28375551      -2.65191428       2.60315674       0.00000000
Si       2.43175493      -0.14270040      -2.84563179       0.00000000
Si      -2.70754463       0.11911248       2.59411243       0.00000000
Si       2.28380915      -2.99209836      -0.24019938       0.00000000
Si      -0.15920217       2.58809006      -2.78798160       0.00000000
