10
Lattice="16.290000149 0.0 0.0 0.0 16.290000149 0.0 0.0 0.0 29.1751946751" Properties=species:S:1:pos:R:3:initial_magmoms:R:1 pbc="T T T"
Si       2.20599182      -0.39122064       0.79038520       0.00000000
Si       0.05256783       2.29185641       0.65819239       0.00000000
Si       0.14812497      -0.40734774      -2.35047038       0.00000000
Si      -1.52304985      -1.38496278       1.26850829       0.00000000
H       -2.17269506      -0.21263337      -1.45053233       0.00000000
H       -0.87493591       2.45941535      -1.88853953       0.00000000
Si       0.49142043       2.03532149       2.93862889       0.00000000
Si      -0.71877997       1.65814283      -3.16060719       0.00000000
Si       2.12395538       0.29923101       3.01918919       0.00000000
Si       2.44345115      -0.36908253      -2.83019811       0.00000000
