10
Lattice="16.290000149 0.0 0.0 0.0 16.290000149 0.0 0.0 0.0 29.1751946751" Properties=species:S:1:pos:R:3:initial_magmoms:R:1 pbc="T T T"
Si      -1.37806885      -1.36391284      -1.30430625       0.00000000
Si      -1.38588805       1.31393512       1.35755098       0.00000000
Si       1.32874273      -1.36695907       1.37543538       0.00000000
Si       1.32349735       1.38634417      -1.38430464       0.00000000
Si      -2.69400764       0.02870298      -2.64470222       0.00000000
Si      -0.01642032       2.67551849       2.68475976       0.00000000
Si       2.68727987      -0.00210141       2.70608683       0.00000000
Si      -0.05108544      -2.72231966      -2.67078485       0.00000000
Si       2.74918188       0.02666673      -2.65360066       0.00000000
Si       2.69392619      -2.71324613       0.02482809       0.00000000
