10
Lattice="16.290000149 0.0 0.0 0.0 16.290000149 0.0 0.0 0.0 29.1751946751" Properties=species:S:1:pos:R:3:initial_magmoms:R:1 pbc="T T T"
Si       1.38588805      -1.31393512      -1.35755098       0.00000000
Si       1.36946773       1.36158337       1.32720878       0.00000000
Si      -1.35475786       1.37060803      -1.33928731       0.00000000
Si      -1.35580042      -1.35521398       1.35801779       0.00000000
Si       0.00781920      -2.67784796      -2.66185724       0.00000000
Si      -0.01177767       2.70733286       2.64764892       0.00000000
Si       0.02438613       2.68838759      -2.70322766       0.00000000
Si       2.71463078      -2.68089419       0.01788439       0.00000000
Si      -2.73502587       0.01099575       2.66877176       0.00000000
Si      -2.73408105      -2.69017949       0.01324554       0.00000000
