10
Lattice="16.290000149 0.0 0.0 0.0 16.290000149 0.0 0.0 0.0 29.1751946751" Properties=species:S:1:pos:R:3:initial_magmoms:R:1 pbc="T T T"
Si       1.32504490       1.33604684       1.33694454       0.00000000
Si      -1.41608971       1.34254167      -1.25548156       0.00000000
Si       1.23155659      -1.20163219      -1.59492328       0.00000000
Si      -1.45982836      -1.43713672       1.21382522       0.00000000
Si      -2.45552204      -0.51098505      -2.20794372       0.00000000
Si      -0.70910371      -2.05291501      -2.65899340       0.00000000
Si       2.62366974       2.62682736      -0.13435761       0.00000000
Si       2.64262231      -0.09953223       2.61120035       0.00000000
Si       2.53301357      -2.73149126      -0.27799293       0.00000000
Si      -0.11728800       2.66795961       2.61884425       0.00000000
