10
Lattice="16.290000149 0.0 0.0 0.0 16.290000149 0.0 0.0 0.0 29.1751946751" Properties=species:S:1:pos:R:3:initial_magmoms:R:1 pbc="T T T"
Si       2.29532618       0.03826521      -0.47972773       0.00000000
Si      -0.86690494       2.06549057      -0.81013681       0.00000000
Si      -0.14812497       0.40734774       2.35047038       0.00000000
Si      -0.92321947      -2.07443215      -0.78017388       0.00000000
H       -2.32082003       0.19471437       0.89993805       0.00000000
H       -1.02306088       2.86676310       0.46193086       0.00000000
Si      -3.59575689       0.14159268       0.06917439       0.00000000
Si      -2.97569433      -1.37959360      -1.68866027       0.00000000
Si       3.07045326       2.08318151       0.39800801       0.00000000
Si       2.05786685       0.01612710       3.14085558       0.00000000
