10
Lattice="16.290000149 0.0 0.0 0.0 16.290000149 0.0 0.0 0.0 29.1751946751" Properties=species:S:1:pos:R:3:initial_magmoms:R:1 pbc="T T T"
Si       1.29029833      -1.41512860       1.35898057       0.00000000
Si      -1.32374170       1.07820253       1.62421226       0.00000000
Si      -1.40483332      -1.36060597      -1.32014838       0.00000000
Si       1.31737231       1.32367654      -1.44344276       0.00000000
H       -2.50901840       1.59093028       0.82548296       0.00000000
Si       2.70823044       0.02133990       2.52843907       0.00000000
Si      -2.01440513      -0.78257161       3.04609455       0.00000000
Si      -0.34422399      -2.46852146       2.79545045       0.00000000
H       -1.88206517       3.24992019      -0.28057785       0.00000000
Si       2.60224607       2.72668538      -0.11964747       0.00000000
