10
Lattice="16.290000149 0.0 0.0 0.0 16.290000149 0.0 0.0 0.0 29.1751946751" Properties=species:S:1:pos:R:3:initial_magmoms:R:1 pbc="T T T"
Si      -1.37256283      -1.34759026       1.33485268       0.00000000
Si      -1.37435473       1.34908894      -1.34442215       0.00000000
Si       1.29148750      -1.37085238      -1.40816995       0.00000000
Si       1.42094413       1.31567815       1.35358316       0.00000000
Si       0.02912652      -2.70197345       2.62346268       0.00000000
Si      -0.00869886       2.69894351      -2.69135336       0.00000000
Si       2.68099193      -0.01311345      -2.72251247       0.00000000
Si       0.08298126       2.72198137       2.68198812       0.00000000
Si       2.60931593      -2.81020422      -0.12802075       0.00000000
Si      -2.72134226       2.71213841       0.01887635       0.00000000
