10
Lattice="16.290000149 0.0 0.0 0.0 16.290000149 0.0 0.0 0.0 29.1751946751" Properties=species:S:1:pos:R:3:initial_magmoms:R:1 pbc="T T T"
Si      -1.23155659       1.20163219       1.59492328       0.00000000
Si      -1.94066030      -0.85128283      -1.06407011       0.00000000
Si       1.30145698      -1.52985907       1.31693036       0.00000000
Si       1.47670220       1.30863533      -1.37147339       0.00000000
H       -0.86086135      -2.56520261      -1.84956730       0.00000000
Si      -2.64764630       2.54417385       0.33944172       0.00000000
Si       2.64841519      -0.28341342      -2.65494855       0.00000000
Si       2.82397089       2.52108604       0.11008384       0.00000000
Si      -3.68707863       0.69064714      -0.61302044       0.00000000
Si       2.69257901      -0.24330744       2.75086492       0.00000000
