10
Lattice="16.290000149 0.0 0.0 0.0 16.290000149 0.0 0.0 0.0 29.1751946751" Properties=species:S:1:pos:R:3:initial_magmoms:R:1 pbc="T T T"
Si      -1.39080763       1.35523027       1.31265036       0.00000000
Si       1.33993396       1.34659657      -1.37412249       0.00000000
Si      -1.40012551      -1.37028223      -1.31323386       0.00000000
Si       1.35107632      -1.31040019       1.42657949       0.00000000
Si       2.58155777      -2.73969458       0.00924854       0.00000000
Si       2.68353317       2.67144599       0.03416415       0.00000000
Si      -2.89044876      -0.00350235       2.47767423       0.00000000
Si      -0.05639598       2.64028322       2.74710716       0.00000000
Si       2.66494628      -0.02409291      -2.74614437       0.00000000
Si      -2.73439055       2.69946479      -0.07153758       0.00000000
