10
Lattice="16.290000149 0.0 0.0 0.0 16.290000149 0.0 0.0 0.0 29.1751946751" Properties=species:S:1:pos:R:3:initial_magmoms:R:1 pbc="T T T"
Si      -1.36311463      -1.36099693       1.33035970       0.00000000
Si       1.33669225      -1.44101341      -1.28825990       0.00000000
Si       1.37919286       1.34503273       1.35559625       0.00000000
Si      -1.38421018       1.35725023      -1.33823700       0.00000000
Si       2.69294879      -0.10050930      -2.60267535       0.00000000
Si       0.02085120      -2.70005123       2.67866215       0.00000000
Si      -2.71327871       0.00340461       2.68613100       0.00000000
Si      -0.03360627       2.75218199      -2.64773061       0.00000000
Si      -2.69786837      -2.71197551      -0.06304760       0.00000000
Si      -2.70772382       2.70855461       0.04670949       0.00000000
