10
Lattice="16.290000149 0.0 0.0 0.0 16.290000149 0.0 0.0 0.0 29.1751946751" Properties=species:S:1:pos:R:3:initial_magmoms:R:1 pbc="T T T"
Si       1.34053669       1.36223497       1.36504901       0.00000000
Si      -1.35081080       1.35974260      -1.35900974       0.00000000
Si      -1.36009935      -1.35365014       1.35915562       0.00000000
Si       1.36891387      -1.35262387      -1.35177429       0.00000000
Si      -2.68185557       2.70923879       0.03089653       0.00000000
Si       2.70813107       0.00451233       2.69208274       0.00000000
Si       0.00861741      -2.70703964      -2.70424879       0.00000000
Si       2.70879896       2.70723512       0.02310675       0.00000000
Si      -2.71243163      -2.70542693      -0.00052515       0.00000000
Si       2.71769330      -2.71318097       0.01210771       0.00000000
