10
Lattice="16.290000149 0.0 0.0 0.0 16.290000149 0.0 0.0 0.0 29.1751946751" Properties=species:S:1:pos:R:3:initial_magmoms:R:1 pbc="T T T"
Si       1.36759438      -1.35772264       1.32703373       0.00000000
Si       1.36826227       1.34500015      -1.34194225       0.00000000
Si      -1.34053669      -1.36223497      -1.36504901       0.00000000
Si      -1.31979952       1.36298431       1.38911854       0.00000000
Si      -0.01384650       2.69094512      -2.67772854       0.00000000
Si      -0.00996948      -2.69941592       2.67017217       0.00000000
Si       2.71480997       0.00636939       2.67591968       0.00000000
Si      -2.69134749      -0.00249237      -2.72405875       0.00000000
Si       2.71842635      -0.01940139      -2.69771355       0.00000000
Si      -2.70063605      -2.71588511      -0.00589339       0.00000000
