10
Lattice="16.290000149 0.0 0.0 0.0 16.290000149 0.0 0.0 0.0 29.1751946751" Properties=species:S:1:pos:R:3:initial_magmoms:R:1 pbc="T T T"
Si      -1.34594497      -1.01876032       1.63538636       0.00000000
Si       1.23048145      -1.42929439      -1.41733096       0.00000000
Si      -1.35107632       1.31040019      -1.42657949       0.00000000
Si       1.42260571       1.27632151       1.40323934       0.00000000
Si       0.09088191      -2.64417034       2.56271993       0.00000000
Si      -0.06783156       2.53447967       2.68983625       0.00000000
Si       2.72477685       2.62650188      -0.04192475       0.00000000
Si      -1.45393138       0.70996708       3.44249792       0.00000000
Si      -2.74188396       2.66563046      -0.11392914       0.00000000
Si       2.61865010      -0.09381411      -2.79658829       0.00000000
