10
Lattice="16.290000149 0.0 0.0 0.0 16.290000149 0.0 0.0 0.0 29.1751946751" Properties=species:S:1:pos:R:3:initial_magmoms:R:1 pbc="T T T"
Si      -1.38950443      -1.35773893       1.31434252       0.00000000
Si      -1.36935370       1.34315938      -1.35192017       0.00000000
Si       1.35159760      -1.36925596      -1.35075316       0.00000000
Si       1.38072412       1.36700794       1.33190599       0.00000000
Si       2.77381236      -0.08265546       2.52855577       0.00000000
Si       0.00759114       2.69858513      -2.68379698       0.00000000
Si      -0.07167600      -2.79709077       2.59449171       0.00000000
Si      -2.68969079       2.71205696       0.03115911       0.00000000
Si      -2.68099193       0.01311345       2.72251247       0.00000000
Si       2.72430704      -0.02671560      -2.69470851       0.00000000
