10
Lattice="16.290000149 0.0 0.0 0.0 16.290000149 0.0 0.0 0.0 29.1751946751" Properties=species:S:1:pos:R:3:initial_magmoms:R:1 pbc="T T T"
Si      -1.22103325       1.32452362      -1.50958292       0.00000000
Si       1.33600807       1.46277685       1.28537155       0.00000000
Si      -1.62792487      -1.02350071       1.38891432       0.00000000
Si       1.77109769      -1.54592101      -0.64097903       0.00000000
H       -0.86192020      -1.73716562      -1.76448660       0.00000000
H       -0.21167226      -2.16023321      -1.72787173       0.00000000
H        1.33709950       0.62524279      -2.86363288       0.00000000
Si      -0.06208119      -2.30474180       2.51070055       0.00000000
Si       1.00567945      -3.41291793       0.64054140       0.00000000
Si       0.02241504       1.08506062      -3.46388334       0.00000000
