10
Lattice="16.290000149 0.0 0.0 0.0 16.290000149 0.0 0.0 0.0 29.1751946751" Properties=species:S:1:pos:R:3:initial_magmoms:R:1 pbc="T T T"
Si       1.32218438      -1.33485148      -1.40609851       0.00000000
Si       1.39172965       1.37398006       1.31168758       0.00000000
Si      -1.33768594       1.36910935      -1.37461847       0.00000000
Si      -1.35329176      -1.34695495       1.39574131       0.00000000
Si      -0.02215440       2.68434767       2.62483391       0.00000000
Si       2.65140929      -2.69179220      -0.03959074       0.00000000
Si      -2.69689097      -2.67180437      -0.01254533       0.00000000
Si      -2.72372060       2.71142165      -0.04011589       0.00000000
Si       0.03902823      -2.70229925       2.74623190       0.00000000
Si       2.67090842       0.02503773      -2.77736183       0.00000000
