10
Lattice="10.86 0.0 0.0 0.0 10.86 0.0 0.0 0.0 10.86" Properties=species:S:1:pos:R:3:initial_magmoms:R:1 pbc="T T T"
Si       1.35750000      -1.35750000      -1.35750000       0.00000000
Si       1.35750000       1.35750000       1.35750000       0.00000000
Si      -1.35750000      -1.35750000       1.35750000       0.00000000
Si      -1.35750000       1.35750000      -1.35750000       0.00000000
Si      -2.37263850      -0.21475650      -2.42929512       0.00000000
Si       2.72361198       0.09934728       2.39434764       0.00000000
Si      -0.05819874       2.56868322      -2.65378218       0.00000000
Si      -0.00735222      -2.69951364       2.60813760       0.00000000
Si       2.86140366      -0.29821560      -2.51133156       0.00000000
Si       2.71500000       2.71500000       0.00000000       0.00000000
