10
Lattice="16.28999089631971 0.0 0.0 0.0 16.28999089631971 0.0 0.0 0.0 34.642051614445585" Properties=species:S:1:pos:R:3:initial_magmoms:R:1 pbc="T T T"
Si       1.35638685       1.34307243       1.38106852       0.00000000
Si      -1.35912683      -1.37629125       1.37926713       0.00000000
Si       1.38598578      -1.28562111      -1.48616217       0.00000000
Si      -1.35322822       1.46090126      -1.39099000       0.00000000
Si       2.70567126       2.69978345      -0.01587646       0.00000000
Si      -2.71246111       2.70300887       0.04554047       0.00000000
Si       2.70661608      -2.71244592       0.01092957       0.00000000
Si      -2.71910126      -2.71827774      -0.00289954       0.00000000
Si      -0.00138465       2.69986490       2.74222477       0.00000000
Si      -2.71486735      -0.01516720       2.74212084       0.00000000
