10
Lattice="16.28999089631971 0.0 0.0 0.0 16.28999089631971 0.0 0.0 0.0 34.642051614445585" Properties=species:S:1:pos:R:3:initial_magmoms:R:1 pbc="T T T"
Si      -1.55211839       1.08563076       1.41325793       0.00000000
Si       2.08365390       1.10170899       0.37299118       0.00000000
Si       0.33793442      -2.32218837       0.60235633       0.00000000
Si      -1.08153287       0.53111916      -2.10367440       0.00000000
Si      -2.59402679      -1.34599383      -1.70788874       0.00000000
Si       2.07324459       0.54095832       2.67457573       0.00000000
Si      -0.02746657       1.48690233       3.16784418       0.00000000
Si       3.55190418      -0.07369596      -1.09177951       0.00000000
Si       2.27998098      -0.73399482      -2.97991095       0.00000000
Si      -1.38692150      -2.77858530       2.24823576       0.00000000
