10
Lattice="16.28999089631971 0.0 0.0 0.0 16.28999089631971 0.0 0.0 0.0 34.642051614445585" Properties=species:S:1:pos:R:3:initial_magmoms:R:1 pbc="T T T"
Si      -2.05820892       1.00620072      -0.39297965       0.00000000
Si      -0.46281519      -2.27787957       0.21737900       0.00000000
Si       0.46434645       1.04410755       2.12286611       0.00000000
Si       1.16188425       0.19574064      -2.13263517       0.00000000
Si      -1.69805331      -2.55145383      -1.81479417       0.00000000
Si      -2.90200486      -0.47728071      -2.02902074       0.00000000
Si       3.26458116       0.89055801      -1.18392742       0.00000000
Si       1.68987573      -3.18003606       0.42623604       0.00000000
Si      -1.48229226       3.28600251      -0.78945816       0.00000000
Si      -1.67229882      -2.50738938       2.20302786       0.00000000
