10
Lattice="16.28999089631971 0.0 0.0 0.0 16.28999089631971 0.0 0.0 0.0 34.642051614445585" Properties=species:S:1:pos:R:3:initial_magmoms:R:1 pbc="T T T"
Si      -2.23039422      -0.30608910       0.76164057       0.00000000
Si       0.80844012      -2.20822842       0.34506967       0.00000000
Si      -0.47788344       0.03099987      -2.35794720       0.00000000
Si       1.04464512       1.36168110       1.81330456       0.00000000
Si       0.82562607      -2.05141436      -2.50292427       0.00000000
Si      -1.35747339      -1.01678922       2.89063833       0.00000000
Si       0.39850227      -2.69357431       2.67131938       0.00000000
Si      -0.31895820       0.90041346       3.76337602       0.00000000
Si       3.37649346       0.92462040       1.94002526       0.00000000
Si      -3.67483571       1.64224377       0.28510424       0.00000000
