10
Lattice="16.28999089631971 0.0 0.0 0.0 16.28999089631971 0.0 0.0 0.0 34.642051614445585" Properties=species:S:1:pos:R:3:initial_magmoms:R:1 pbc="T T T"
Si       1.33770222       0.38258694      -1.90888204       0.00000000
Si      -2.03763889       0.91328160      -0.78090156       0.00000000
Si      -0.57591666      -2.27980179       0.39647850       0.00000000
Si       0.97464699       1.09933947       1.88345476       0.00000000
Si       1.34750880      -1.71585828      -2.95836358       0.00000000
Si       1.48229226      -3.28600251       0.78945816       0.00000000
Si      -3.63888368       0.67521154       0.97496645       0.00000000
Si      -1.88232090       3.27335237      -0.86144438       0.00000000
Si       1.57874535       3.34020653       1.20194129       0.00000000
Si      -1.97363776      -2.47697595       2.26905565       0.00000000
