10
Lattice="16.28999089631971 0.0 0.0 0.0 16.28999089631971 0.0 0.0 0.0 34.642051614445585" Properties=species:S:1:pos:R:3:initial_magmoms:R:1 pbc="T T T"
Si       1.39772110       0.19717416      -1.87257715       0.00000000
Si      -2.09724043       0.97008579      -0.52971191       0.00000000
Si      -0.33487420      -2.28271770       0.75017405       0.00000000
Si       1.63632073       1.19089674       1.45742657       0.00000000
Si       0.55392516      -1.28630727      -3.50861823       0.00000000
Si      -1.66524592       3.15218749      -1.29408920       0.00000000
Si      -0.76651033      -1.80483426       3.27571959       0.00000000
Si       1.78363120      -3.31641594       0.72343037       0.00000000
Si       3.45593002      -0.80902656      -1.47959749       0.00000000
Si      -3.76665592       0.12549816       0.97444681       0.00000000
