10
Lattice="16.28999089631971 0.0 0.0 0.0 16.28999089631971 0.0 0.0 0.0 34.642051614445585" Properties=species:S:1:pos:R:3:initial_magmoms:R:1 pbc="T T T"
Si      -1.35648459       1.35726651       1.35703385       0.00000000
Si       1.35749457       1.35648459      -1.35751884       0.00000000
Si      -1.35811359      -1.35676152      -1.35692992       0.00000000
Si       1.35853713      -1.35757602       1.35682599       0.00000000
Si      -2.71357680      -0.00153126      -2.70952958       0.00000000
Si       0.00164529      -2.71416487       2.71375591       0.00000000
Si      -2.71436686       2.71482624       0.00027714       0.00000000
Si       0.00048870       2.71570590       2.71351342       0.00000000
Si      -2.71450696      -2.71473664       0.00006928       0.00000000
Si      -2.71467311       0.00004887       2.71562659       0.00000000
