10
Lattice="16.28999089631971 0.0 0.0 0.0 16.28999089631971 0.0 0.0 0.0 34.642051614445585" Properties=species:S:1:pos:R:3:initial_magmoms:R:1 pbc="T T T"
Si       1.33159347       1.34752509      -1.35758812       0.00000000
Si      -1.21627656       1.51700625       1.30479360       0.00000000
Si      -1.37829690      -1.37161800      -1.35239181       0.00000000
Si       1.41120270      -1.33781625       1.38000154       0.00000000
Si      -1.78155585      -0.43611588       2.48588037       0.00000000
Si      -0.47804634      -2.51853011       2.34090330       0.00000000
Si       2.66843232      -2.70432896      -0.03474600       0.00000000
Si       2.69151525      -0.00752598      -2.71590372       0.00000000
Si       2.68537392       2.72981304       0.03471136       0.00000000
Si      -0.02520063       2.70715365      -2.71625014       0.00000000
