10
Lattice="16.28999089631971 0.0 0.0 0.0 16.28999089631971 0.0 0.0 0.0 34.642051614445585" Properties=species:S:1:pos:R:3:initial_magmoms:R:1 pbc="T T T"
Si      -1.33159347      -1.34752509       1.35758812       0.00000000
Si       1.35992178      -1.35505107      -1.35831560       0.00000000
Si      -1.35679410       1.35962856      -1.35866202       0.00000000
Si       1.35378045       1.38228795       1.39229947       0.00000000
Si      -2.54787003       0.16948116       2.66238172       0.00000000
Si       0.07960923      -2.68534134       2.73758966       0.00000000
Si       2.71423980      -2.71075374      -0.00204388       0.00000000
Si      -2.71145421       2.71494027      -0.00062356       0.00000000
Si      -2.71376739       0.00118917      -2.71514160       0.00000000
Si       0.00125433      -2.71365336      -2.71534945       0.00000000
