10
Lattice="16.28999089631971 0.0 0.0 0.0 16.28999089631971 0.0 0.0 0.0 34.642051614445585" Properties=species:S:1:pos:R:3:initial_magmoms:R:1 pbc="T T T"
Si       0.52312077      -1.38974877      -1.84635310       0.00000000
Si      -1.85692968      -1.24716240       0.88898483       0.00000000
Si      -0.42029829       2.00658591      -1.29550953       0.00000000
Si       2.05081326       1.21290453       0.95962001       0.00000000
Si       1.20073590       3.27539772      -0.04884532       0.00000000
Si      -1.03143393      -1.15346232       3.15037554       0.00000000
Si       2.72561022      -0.42339339      -2.32815502       0.00000000
Si       0.30027357      -3.67403031      -1.15257634       0.00000000
Si      -0.78481962      -0.65383173      -3.73005035       0.00000000
Si       0.04751793       1.60554240      -3.56040813       0.00000000
