10
Lattice="16.28999089631971 0.0 0.0 0.0 16.28999089631971 0.0 0.0 0.0 34.642051614445585" Properties=species:S:1:pos:R:3:initial_magmoms:R:1 pbc="T T T"
Si      -1.91729620      -0.35373735       1.23062493       0.00000000
Si       1.03851519       1.91720268       0.87273769       0.00000000
Si      -0.87292083       0.71070012      -2.12899776       0.00000000
Si       1.75597566      -1.67678509      -0.21931895       0.00000000
Si       1.35747339       1.01678922      -2.89063833       0.00000000
Si      -0.91719216      -1.30946025       3.15616980       0.00000000
Si       2.40211851       2.37847032      -1.07733377       0.00000000
Si       2.16591351      -1.19143920      -2.54556866       0.00000000
Si      -3.13723801      -2.08539041       0.25832592       0.00000000
Si      -0.73171911       3.54061521       1.37903156       0.00000000
