10
Lattice="16.28999089631971 0.0 0.0 0.0 16.28999089631971 0.0 0.0 0.0 34.642051614445585" Properties=species:S:1:pos:R:3:initial_magmoms:R:1 pbc="T T T"
Si       1.69648947      -1.05925725      -1.50235733       0.00000000
Si       1.68314796       0.92069451       1.65214965       0.00000000
Si      -0.90587061       2.31570495      -0.61309537       0.00000000
Si      -2.18347902      -0.39811131      -1.31743796       0.00000000
Si      -1.87681977      -0.66793887       1.64979399       0.00000000
Si       0.57533022      -3.18041073      -0.95445834       0.00000000
Si       1.19855304       3.27872088      -1.12617909       0.00000000
Si      -2.17779381       1.65540609      -2.50122681       0.00000000
Si      -1.49752341      -3.02032890       2.05032561       0.00000000
Si       0.64979181       0.85367745       3.82268325       0.00000000
