10
Lattice="16.28999089631971 0.0 0.0 0.0 16.28999089631971 0.0 0.0 0.0 34.642051614445585" Properties=species:S:1:pos:R:3:initial_magmoms:R:1 pbc="T T T"
Si      -1.78902874      -0.02220979       1.51593703       0.00000000
Si       1.39332768       1.56030996       1.08914671       0.00000000
Si       0.26402180      -2.32831571      -0.27873010       0.00000000
Si      -1.00010404       0.95572290      -1.92554487       0.00000000
Si       0.91719216       1.30946025      -3.15616980       0.00000000
Si      -0.22034994       3.20061522       1.67127207       0.00000000
Si      -1.26063001      -2.72958728      -2.03331636       0.00000000
Si      -3.60570583       0.81600357       0.10139734       0.00000000
Si      -2.22004585      -0.77593017      -2.89784388       0.00000000
Si      -1.43802811       1.73848998       3.03395258       0.00000000
