10
Lattice="16.28999089631971 0.0 0.0 0.0 16.28999089631971 0.0 0.0 0.0 34.642051614445585" Properties=species:S:1:pos:R:3:initial_magmoms:R:1 pbc="T T T"
Si      -1.35620766       1.35496962       1.35675671       0.00000000
Si       1.35653346      -1.35834165       1.35686064       0.00000000
Si      -1.36567215      -1.34056926      -1.37405350       0.00000000
Si       1.35174420       1.35325917      -1.38751540       0.00000000
Si       2.71192662       2.71342108      -0.00301386       0.00000000
Si       0.00047241       2.71306922       2.71431019       0.00000000
Si       2.71262709      -2.71526607      -0.00457275       0.00000000
Si       2.71428867      -0.00127062       2.71406769       0.00000000
Si      -2.71472850      -0.00144981       2.71417162       0.00000000
Si      -2.71508688      -2.71463076      -0.00436490       0.00000000
