10
Lattice="16.28999089631971 0.0 0.0 0.0 16.28999089631971 0.0 0.0 0.0 34.642051614445585" Properties=species:S:1:pos:R:3:initial_magmoms:R:1 pbc="T T T"
Si      -1.53666828       0.87992064      -1.53266915       0.00000000
Si       0.92872548       2.20922115       0.46146703       0.00000000
Si      -1.56786363       0.31915368       1.84368566       0.00000000
Si       1.32797709      -1.86113250      -0.86151366       0.00000000
Si      -1.24607097       2.65301125       1.32003611       0.00000000
Si       0.09930384       2.05978092      -2.74140029       0.00000000
Si      -2.95525035       2.28722907      -0.20480392       0.00000000
Si       2.59724502       1.85223816       2.00560270       0.00000000
Si       2.77628841      -0.69366078      -2.50548778       0.00000000
Si       2.69672805      -2.51608824       1.07404277       0.00000000
