10
Lattice="16.28999089631971 0.0 0.0 0.0 16.28999089631971 0.0 0.0 0.0 34.642051614445585" Properties=species:S:1:pos:R:3:initial_magmoms:R:1 pbc="T T T"
Si       0.23065011       2.28022533       0.49863797       0.00000000
Si      -2.34051462      -0.18596664      -0.25146679       0.00000000
Si       1.03335615       0.06701706      -2.17053360       0.00000000
Si       0.72915669      -1.68026463       1.56582161       0.00000000
Si       3.13533630      -0.89119332      -1.64435518       0.00000000
Si      -2.52661158      -1.52161632      -2.17288926       0.00000000
Si      -1.85722290       3.03699357       1.12288809       0.00000000
Si      -3.03432201       2.07668178      -0.66942338       0.00000000
Si       2.74188393      -0.84227445       2.45736995       0.00000000
Si      -0.76748706      -1.80502974       3.43784448       0.00000000
