10
Lattice="16.28999089631971 0.0 0.0 0.0 16.28999089631971 0.0 0.0 0.0 34.642051614445585" Properties=species:S:1:pos:R:3:initial_magmoms:R:1 pbc="T T T"
Si       1.84357188      -1.46469906      -0.01874136       0.00000000
Si       0.95459400       1.90627209       1.07248388       0.00000000
Si      -1.63382184      -1.19861820       1.26516307       0.00000000
Si      -1.07144217       0.46773477      -2.10741575       0.00000000
Si       1.66737924      -2.26093797       2.29760072       0.00000000
Si      -3.24749947       0.44168706       1.84728843       0.00000000
Si       2.07963027       3.16175868      -0.59833785       0.00000000
Si      -0.76639563       3.35718981       1.73300424       0.00000000
Si      -2.84167647       2.09114730      -1.60112188       0.00000000
Si       1.77583806      -2.74514193      -2.08323558       0.00000000
