10
Lattice="16.28999089631971 0.0 0.0 0.0 16.28999089631971 0.0 0.0 0.0 34.642051614445585" Properties=species:S:1:pos:R:3:initial_magmoms:R:1 pbc="T T T"
Si       1.25846766      -1.37330890      -1.40568171       0.00000000
Si       1.36453185       1.32440958       1.36460314       0.00000000
Si      -1.35224919      -1.38992307       1.36207427       0.00000000
Si      -1.41574761       1.35086454      -1.44306397       0.00000000
Si      -0.60199695      -1.92378710      -2.94973566       0.00000000
Si       2.70159876       2.69353521      -0.01004274       0.00000000
Si       0.00838935       2.68278381       2.72142913       0.00000000
Si      -2.73139317       2.67753843      -0.00642264       0.00000000
Si      -2.70760977      -0.03225420       2.72239911       0.00000000
Si       2.72332962      -0.03298725       2.72201805       0.00000000
