10
Lattice="16.28999089631971 0.0 0.0 0.0 16.28999089631971 0.0 0.0 0.0 34.642051614445585" Properties=species:S:1:pos:R:3:initial_magmoms:R:1 pbc="T T T"
Si       1.32449103      -1.35637219      -1.44166443       0.00000000
Si       1.16398566       1.71561393       1.19075191       0.00000000
Si      -1.85362281      -0.88441668       1.26478201       0.00000000
Si      -1.37689596       1.35466011      -1.45590232       0.00000000
Si      -0.70969014       3.29501088       1.31847722       0.00000000
Si      -2.75884182      -2.60571484      -0.20151293       0.00000000
Si      -2.61071685       2.76613974      -0.07541579       0.00000000
Si       2.76543927      -2.62989539      -0.04898389       0.00000000
Si       2.68139916       0.00573408      -2.80708165       0.00000000
Si      -0.03358998      -2.70848033      -2.81220868       0.00000000
