10
Lattice="16.28999089631971 0.0 0.0 0.0 16.28999089631971 0.0 0.0 0.0 34.642051614445585" Properties=species:S:1:pos:R:3:initial_magmoms:R:1 pbc="T T T"
Si       2.00280663       0.27278745      -1.16432001       0.00000000
Si      -0.14954220      -2.15375207       0.94711422       0.00000000
Si      -1.08750411      -0.11488506      -2.15588000       0.00000000
Si       0.35828226       1.26071894       2.20039506       0.00000000
Si       1.29898089       2.55352755      -1.31355805       0.00000000
Si      -1.05311592       3.22008177      -0.96935443       0.00000000
Si      -0.55633608      -2.40838106      -2.68233556       0.00000000
Si      -1.00613556       3.20734299       1.45756514       0.00000000
Si       0.37159119      -3.56721908      -0.85843052       0.00000000
Si      -3.36867426       0.19086341      -1.55473615       0.00000000
