10
Lattice="16.28999089631971 0.0 0.0 0.0 16.28999089631971 0.0 0.0 0.0 34.642051614445585" Properties=species:S:1:pos:R:3:initial_magmoms:R:1 pbc="T T T"
Si       2.03763889      -0.91328160       0.78090156       0.00000000
Si       0.15531798       2.36007076      -0.08054282       0.00000000
Si      -1.60124479      -0.23807006       1.75586801       0.00000000
Si      -1.08175669      -0.78753909      -2.06484064       0.00000000
Si      -3.06664432      -1.44251112      -1.05959702       0.00000000
Si       3.37534111      -0.53069466      -1.12798047       0.00000000
Si      -3.55946569       0.26761049       0.56923851       0.00000000
Si      -1.06458703       2.78372479      -2.06466743       0.00000000
Si       1.46172223      -3.19308339       1.17738007       0.00000000
Si      -1.11497200       1.35000606       3.33994599       0.00000000
