10
Lattice="16.28999089631971 0.0 0.0 0.0 16.28999089631971 0.0 0.0 0.0 34.642051614445585" Properties=species:S:1:pos:R:3:initial_magmoms:R:1 pbc="T T T"
Si       1.35257499       1.36102950      -1.34517933       0.00000000
Si      -1.35767376       1.35534429       1.36029020       0.00000000
Si       1.35713619      -1.35980775       1.35945879       0.00000000
Si      -1.38264633      -1.36505313      -1.36839298       0.00000000
Si       2.56907961      -0.00545715      -2.79526178       0.00000000
Si      -2.71472850       2.70866862      -0.00062356       0.00000000
Si       2.71604799       2.71171485       0.00484989       0.00000000
Si       0.00004887       2.71204065       2.71739333       0.00000000
Si      -2.71233387      -2.71730232       0.00055427       0.00000000
Si       2.71412577      -0.00190593       2.71725476       0.00000000
