10
Lattice="16.28999089631971 0.0 0.0 0.0 16.28999089631971 0.0 0.0 0.0 34.642051614445585" Properties=species:S:1:pos:R:3:initial_magmoms:R:1 pbc="T T T"
Si      -1.35811359       1.35094599       1.35921630       0.00000000
Si       1.35716877       1.35475785      -1.35710313       0.00000000
Si      -1.35814617      -1.36005210      -1.35703385       0.00000000
Si       1.35638685      -1.36122498       1.36413547       0.00000000
Si      -2.70190827      -0.01229895       2.71531481       0.00000000
Si      -2.71396287       2.71277370       0.00076213       0.00000000
Si      -0.00107514       2.71293660      -2.71420626       0.00000000
Si       2.71507059       2.71324611       0.00038106       0.00000000
Si       2.71494027      -0.00325800      -2.71410233       0.00000000
Si      -2.71603170      -0.00294849      -2.71437947       0.00000000
