10
Lattice="16.28999089631971 0.0 0.0 0.0 16.28999089631971 0.0 0.0 0.0 34.642051614445585" Properties=species:S:1:pos:R:3:initial_magmoms:R:1 pbc="T T T"
Si      -1.23382089       1.41147963       1.38048653       0.00000000
Si       1.34379468       1.36324494      -1.35609851       0.00000000
Si      -1.37275830      -1.34496756      -1.35935487       0.00000000
Si       1.37689596      -1.35466011       1.45590232       0.00000000
Si       0.66720582       1.94035077       2.77437954       0.00000000
Si      -2.20219623      -0.38493270       2.71898687       0.00000000
Si      -0.47672685      -2.23907679       2.72068433       0.00000000
Si       2.54088162       0.36095382       2.64665422       0.00000000
Si       2.70138699      -2.71103230       0.01423789       0.00000000
Si       2.70190827       0.01229895      -2.71531481       0.00000000
