10
Lattice="16.28999089631971 0.0 0.0 0.0 16.28999089631971 0.0 0.0 0.0 34.642051614445585" Properties=species:S:1:pos:R:3:initial_magmoms:R:1 pbc="T T T"
Si       1.23382089      -1.41147963      -1.38048653       0.00000000
Si       1.90102671       0.52887114       1.39389301       0.00000000
Si      -1.49939676       1.33659450      -1.34549804       0.00000000
Si      -0.96837534      -1.79641233       1.33850034       0.00000000
Si      -0.99973359      -0.41350536       3.27672421       0.00000000
Si       2.62101213       2.49590493       0.23438825       0.00000000
Si      -2.25010512       1.53160209       2.59119227       0.00000000
Si       2.57761557      -0.04823469      -2.73658504       0.00000000
Si       2.61071685      -2.76613974       0.07541579       0.00000000
Si      -0.14043609       2.67296094      -2.73239335       0.00000000
