10
Lattice="16.28999089631971 0.0 0.0 0.0 16.28999089631971 0.0 0.0 0.0 34.642051614445585" Properties=species:S:1:pos:R:3:initial_magmoms:R:1 pbc="T T T"
Si       1.89258849       1.18890936       0.69640955       0.00000000
Si       1.11493647      -0.64482336      -1.98921700       0.00000000
Si      -0.17803341      -2.32443639       0.42713674       0.00000000
Si      -2.08476162       1.15610130      -0.12155903       0.00000000
Si      -0.87548976      -0.25565526      -3.30693210       0.00000000
Si       1.47012363      -2.90227527      -1.19459718       0.00000000
Si       0.85071267       2.71551042       2.15712712       0.00000000
Si      -2.97266436       0.08910630      -2.08992150       0.00000000
Si       0.36483084      -2.70542691       2.63317846       0.00000000
Si       3.28943970      -0.33107796       1.89426308       0.00000000
