10
Lattice="16.28999089631971 0.0 0.0 0.0 16.28999089631971 0.0 0.0 0.0 34.642051614445585" Properties=species:S:1:pos:R:3:initial_magmoms:R:1 pbc="T T T"
Si       1.49012775       1.44116001       1.05100579       0.00000000
Si       1.04187582      -1.52660106      -1.46071756       0.00000000
Si      -1.80245592       1.51516548      -0.40001199       0.00000000
Si       0.01575243      -1.43547480       1.90936703       0.00000000
Si       2.14270515      -0.34050987       2.38195416       0.00000000
Si      -3.01537674       0.82635912       1.56249597       0.00000000
Si      -0.85071267      -2.71551042      -2.15712712       0.00000000
Si      -1.91721897      -0.69639750       3.09398728       0.00000000
Si      -2.62192437       0.77744025      -2.53922916       0.00000000
Si       3.01163004       2.13464160      -0.55389207       0.00000000
