10
Lattice="16.28999089631971 0.0 0.0 0.0 16.28999089631971 0.0 0.0 0.0 34.642051614445585" Properties=species:S:1:pos:R:3:initial_magmoms:R:1 pbc="T T T"
Si       1.35708934       1.35705697       1.35710313       0.00000000
Si      -1.35773757      -1.35876200       1.35682599       0.00000000
Si      -1.35591309       1.35803763      -1.36105233       0.00000000
Si       1.35574052      -1.36112405      -1.36285371       0.00000000
Si       0.00240624       2.71817607      -2.69658038       0.00000000
Si      -0.00083404       2.71431534       2.71396377       0.00000000
Si       2.71348270       2.71503210       0.00010393       0.00000000
Si      -2.71532988       2.71364745      -0.00020785       0.00000000
Si       2.71460671      -0.00059563       2.71458732       0.00000000
Si      -2.71542762      -0.00061711       2.71424090       0.00000000
