10
Lattice="16.28999089631971 0.0 0.0 0.0 16.28999089631971 0.0 0.0 0.0 34.642051614445585" Properties=species:S:1:pos:R:3:initial_magmoms:R:1 pbc="T T T"
Si      -1.35627282      -1.35101115       1.36157196       0.00000000
Si       1.35741312      -1.35751086      -1.35803847       0.00000000
Si      -1.35808101       1.35821363      -1.35817703       0.00000000
Si       1.35808101       1.35210814       1.37054425       0.00000000
Si      -2.72525184       0.10276548       2.61069575       0.00000000
Si       2.71498914       2.71421441       0.00512703       0.00000000
Si       0.00034209      -2.71484253      -2.71576515       0.00000000
Si      -2.71479366       0.00075928      -2.71590372       0.00000000
Si       2.71538010       0.00043854      -2.71597301       0.00000000
Si       0.00045612       2.71538729      -2.71604229       0.00000000
