10
Lattice="16.28999089631971 0.0 0.0 0.0 16.28999089631971 0.0 0.0 0.0 34.642051614445585" Properties=species:S:1:pos:R:3:initial_magmoms:R:1 pbc="T T T"
Si      -1.66851954       0.35698299      -1.54413567       0.00000000
Si       1.88784810      -0.82855827      -1.05356930       0.00000000
Si       0.34099857       1.89489257       1.29620237       0.00000000
Si      -0.54030672      -1.65468933       1.65069468       0.00000000
Si       1.82793348       1.01996807       3.00668927       0.00000000
Si       0.99302211      -1.14614811       3.43105464       0.00000000
Si      -2.59724502      -1.85223816      -2.00560270       0.00000000
Si      -1.70342901       2.47548446       2.32250836       0.00000000
Si      -2.95665129      -1.70852778       1.86634157       0.00000000
Si       3.93963876       0.03078810      -0.27942294       0.00000000
