10
Lattice="16.28999089631971 0.0 0.0 0.0 16.28999089631971 0.0 0.0 0.0 34.642051614445585" Properties=species:S:1:pos:R:3:initial_magmoms:R:1 pbc="T T T"
Si       0.49824594      -2.31228405      -0.17099326       0.00000000
Si       0.54030672       1.65468933      -1.65069468       0.00000000
Si       1.53332883       0.50854122       1.78035995       0.00000000
Si      -2.41634457      -0.05383845       0.21564689       0.00000000
Si       0.88130529       3.54958190      -0.35449231       0.00000000
Si      -1.03822686      -3.19463190       1.49189543       0.00000000
Si       2.42815482       0.82613106      -2.70426399       0.00000000
Si       0.63978975      -2.71363707      -2.58225461       0.00000000
Si       2.36824020       2.67465740       1.35599458       0.00000000
Si       2.89685070      -2.51765208       0.05234417       0.00000000
