10
Lattice="16.28999089631971 0.0 0.0 0.0 16.28999089631971 0.0 0.0 0.0 34.642051614445585" Properties=species:S:1:pos:R:3:initial_magmoms:R:1 pbc="T T T"
Si      -1.42988733       1.28133882      -1.45666444       0.00000000
Si       2.25702837       0.50419179      -0.70881141       0.00000000
Si      -0.64819539       0.11723913       2.66269350       0.00000000
Si      -0.31496715      -2.28200094      -1.80509439       0.00000000
Si      -2.51845029      -1.77787431       1.18832696       0.00000000
Si      -1.53663570      -0.64560528      -3.00305185       0.00000000
Si      -3.35360601       1.67339025       0.14414566       0.00000000
Si      -1.49030694      -3.44738754      -0.14622418       0.00000000
Si       2.77816176      -0.90927522      -2.51435615       0.00000000
Si       2.40657057       2.65794386      -1.65592563       0.00000000
