10
Lattice="16.28999089631971 0.0 0.0 0.0 16.28999089631971 0.0 0.0 0.0 34.642051614445585" Properties=species:S:1:pos:R:3:initial_magmoms:R:1 pbc="T T T"
Si       1.35821133       1.35525828       1.35748419       0.00000000
Si      -1.35764118       1.35729453      -1.35779597       0.00000000
Si       1.35769005      -1.35814488      -1.35741491       0.00000000
Si      -1.35796698      -1.35794940       1.35793454       0.00000000
Si       2.71315347       0.00264027       2.71541873       0.00000000
Si       0.00009774       2.71426456      -2.71444876       0.00000000
Si      -2.71448415      -0.00102262      -2.71462197       0.00000000
Si       2.71423905      -2.71502043       0.00003464       0.00000000
Si       2.71459358       2.71493245      -0.00027714       0.00000000
Si       2.71542762       0.00061711      -2.71424090       0.00000000
