10
Lattice="16.28999089631971 0.0 0.0 0.0 16.28999089631971 0.0 0.0 0.0 34.642051614445585" Properties=species:S:1:pos:R:3:initial_magmoms:R:1 pbc="T T T"
Si       1.35534918       1.35570267      -1.33319317       0.00000000
Si      -1.35561325      -1.35208629      -1.34408464       0.00000000
Si       1.35546321      -1.35523026       1.35259966       0.00000000
Si      -1.35584605       1.35791811       1.35211467       0.00000000
Si      -0.00265690       2.65434147      -2.65718541       0.00000000
Si      -2.68576718       0.00171045      -2.68720277       0.00000000
Si       0.00361964      -2.59419390      -2.78061511       0.00000000
Si      -0.00093016      -2.71320538       2.70959887       0.00000000
Si       2.71357680       0.00153126       2.70952958       0.00000000
Si      -2.71528466       0.00086337       2.70959887       0.00000000
