10
Lattice="16.28999089631971 0.0 0.0 0.0 16.28999089631971 0.0 0.0 0.0 34.642051614445585" Properties=species:S:1:pos:R:3:initial_magmoms:R:1 pbc="T T T"
Si      -1.82246004      -0.01285281       1.60597177       0.00000000
Si      -1.20899493       0.49497165      -2.09532566       0.00000000
Si       2.14301466       1.32740694       0.38722907       0.00000000
Si       1.75301577      -1.90931832      -0.01302542       0.00000000
Si       0.46240794       1.66724892      -3.31496906       0.00000000
Si       3.58745615      -0.62092593       0.86376540       0.00000000
Si       1.90373085       2.78909235      -1.62460920       0.00000000
Si      -0.97107948       1.01154384       3.58950747       0.00000000
Si       1.95688512      -2.44891317      -2.25422884       0.00000000
Si      -3.59266176       1.51651755       0.34188260       0.00000000
