10
Lattice="16.28999089631971 0.0 0.0 0.0 16.28999089631971 0.0 0.0 0.0 34.642051614445585" Properties=species:S:1:pos:R:3:initial_magmoms:R:1 pbc="T T T"
Si      -1.34115570       0.85152717       1.73750771       0.00000000
Si       0.93178800       1.76816547      -1.35907773       0.00000000
Si      -0.74342673      -1.18884909      -1.98422854       0.00000000
Si       1.81667709      -0.83821335       1.41453968       0.00000000
Si       2.60560179       0.13971933      -2.02694221       0.00000000
Si       1.38565998      -1.59193373      -2.99924122       0.00000000
Si       3.60570583      -0.81600357      -0.10139734       0.00000000
Si       2.16767772       0.92248641       2.93255523       0.00000000
Si      -2.01385125       3.03347493       1.16695280       0.00000000
Si       0.02971296       1.61482770       3.50165518       0.00000000
