10
Lattice="16.28999089631971 0.0 0.0 0.0 16.28999089631971 0.0 0.0 0.0 34.642051614445585" Properties=species:S:1:pos:R:3:initial_magmoms:R:1 pbc="T T T"
Si      -1.35800608       1.29863880      -1.32399224       0.00000000
Si       1.26477189      -1.24657596      -1.49105363       0.00000000
Si       1.35599589       1.36068741       1.32598762       0.00000000
Si      -1.35534918      -1.35570267       1.33319317       0.00000000
Si       0.38177244       2.29025997      -2.50540499       0.00000000
Si       2.03080914       0.56640330      -2.73782876       0.00000000
Si      -2.25097338      -0.43108227      -2.62265697       0.00000000
Si      -0.45928026      -2.14615863      -2.89402082       0.00000000
Si      -2.71119523       0.00221544       2.68530785       0.00000000
Si       0.00011403      -2.71093293       2.68579283       0.00000000
