10
Lattice="16.28999089631971 0.0 0.0 0.0 16.28999089631971 0.0 0.0 0.0 34.642051614445585" Properties=species:S:1:pos:R:3:initial_magmoms:R:1 pbc="T T T"
Si      -1.35438318       1.35558864      -1.35495532       0.00000000
Si      -1.35630540      -1.35803214       1.35744955       0.00000000
Si       1.35887922       1.35653346       1.35748419       0.00000000
Si       1.35697329      -1.35549090      -1.36240337       0.00000000
Si       0.01428633       2.69884575      -2.70977208       0.00000000
Si      -2.71785618       0.00490329      -2.70498454       0.00000000
Si      -2.71205694       2.71261080       0.00045035       0.00000000
Si      -2.71296918      -0.00115659       2.71462197       0.00000000
Si       0.00138465       2.71420722       2.71444876       0.00000000
Si      -2.71329498      -2.71593396      -0.00034642       0.00000000
