10
Lattice="16.28999089631971 0.0 0.0 0.0 16.28999089631971 0.0 0.0 0.0 34.642051614445585" Properties=species:S:1:pos:R:3:initial_magmoms:R:1 pbc="T T T"
Si       1.35262849      -1.35902583       1.35647957       0.00000000
Si       1.35646036       1.35676152      -1.35720706       0.00000000
Si      -1.35752715       1.35537687       1.35793454       0.00000000
Si      -1.35790182      -1.35848826      -1.35748419       0.00000000
Si       2.69825184       0.01207089       2.72861736       0.00000000
Si      -2.71507059      -2.71324611      -0.00038106       0.00000000
Si       2.71436427      -0.00100998      -2.71427554       0.00000000
Si      -0.00096111       2.71425609      -2.71455268       0.00000000
Si       2.71454509       2.71432125       0.00006928       0.00000000
Si      -2.71479366       2.71482624      -0.00051963       0.00000000
