10
Lattice="16.28999089631971 0.0 0.0 0.0 16.28999089631971 0.0 0.0 0.0 34.642051614445585" Properties=species:S:1:pos:R:3:initial_magmoms:R:1 pbc="T T T"
Si       1.35633798       1.35710361      -1.35706849       0.00000000
Si      -1.35801585      -1.35826020      -1.35689528       0.00000000
Si       1.35726651      -1.35944937       1.35845417       0.00000000
Si      -1.35650088       1.35817875       1.36209159       0.00000000
Si      -0.00024435       2.71379997      -2.71379056       0.00000000
Si       2.71383255      -0.00057015      -2.71403305       0.00000000
Si       2.71422351       2.71366965       0.00006928       0.00000000
Si      -0.00135207      -2.71513575      -2.71406769       0.00000000
Si      -2.71542897      -0.00118917      -2.71392912       0.00000000
Si      -2.71423980      -2.71529865       0.00090069       0.00000000
