10
Lattice="16.28999089631971 0.0 0.0 0.0 16.28999089631971 0.0 0.0 0.0 34.642051614445585" Properties=species:S:1:pos:R:3:initial_magmoms:R:1 pbc="T T T"
Si       1.34469762       1.36798533      -1.39164128       0.00000000
Si      -1.36739889      -1.34750880      -1.39514012       0.00000000
Si      -1.49060016       1.22396544       1.43397389       0.00000000
Si       1.59425573      -1.33763706       1.66815429       0.00000000
Si      -0.08154774       2.49548139       2.70873281       0.00000000
Si       2.68838010      -2.69081478      -0.02445730       0.00000000
Si      -2.71687878      -2.69395875      -0.02334876       0.00000000
Si       2.69600707       2.71971324      -0.02064667       0.00000000
Si      -0.00987174      -2.70288567      -2.75307466       0.00000000
Si       2.70467335       0.01143558      -2.75300538       0.00000000
