10
Lattice="16.28999089631971 0.0 0.0 0.0 16.28999089631971 0.0 0.0 0.0 34.642051614445585" Properties=species:S:1:pos:R:3:initial_magmoms:R:1 pbc="T T T"
Si       1.35238461       1.35925389      -1.37019783       0.00000000
Si      -1.35909099      -1.36005210      -1.36701076       0.00000000
Si      -1.27711971       1.43476001       1.39358123       0.00000000
Si       1.29036348      -1.45381734       1.45721872       0.00000000
Si      -2.55391362      -0.05893722       2.65829396       0.00000000
Si       0.28730673       2.83638452       2.47441385       0.00000000
Si       2.70774565       2.69746829      -0.01032334       0.00000000
Si       2.70340273      -2.72253141       0.00415705       0.00000000
Si      -2.71806795       2.70828322       0.00090069       0.00000000
Si       2.71213906       0.00019548      -2.72660812       0.00000000
