10
Lattice="16.28999089631971 0.0 0.0 0.0 16.28999089631971 0.0 0.0 0.0 34.642051614445585" Properties=species:S:1:pos:R:3:initial_magmoms:R:1 pbc="T T T"
Si       1.41303925      -1.26871407      -1.45306167       0.00000000
Si      -1.36451556      -1.49294592       1.27631782       0.00000000
Si       1.29580175       0.83386881       1.86769261       0.00000000
Si      -1.29036348       1.45381734      -1.45721872       0.00000000
Si       2.50004978       2.53579914      -0.03935339       0.00000000
Si       0.06172980      -2.62044198      -2.82405627       0.00000000
Si      -2.56748319       2.88857735      -0.06363748       0.00000000
Si      -2.64945447       0.09376524      -2.82422948       0.00000000
Si       2.74443236      -2.73228912      -0.10527725       0.00000000
Si      -2.77356798      -2.76446187       0.00155889       0.00000000
