10
Lattice="16.28999089631971 0.0 0.0 0.0 16.28999089631971 0.0 0.0 0.0 34.642051614445585" Properties=species:S:1:pos:R:3:initial_magmoms:R:1 pbc="T T T"
Si       0.01738143       0.58609532       2.27109953       0.00000000
Si      -2.05179066      -0.85934637      -0.77414636       0.00000000
Si       0.44725824       2.09379347      -0.99301496       0.00000000
Si       1.44738279      -1.92207339      -0.38130528       0.00000000
Si       0.97679727      -1.36756179       3.13562705       0.00000000
Si       0.65112759       1.55419862      -3.23421839       0.00000000
Si      -0.06511113      -3.79918638       0.01448039       0.00000000
Si       2.52891566      -2.45319255       1.72236913       0.00000000
Si      -3.93963876      -0.03078810       0.27942294       0.00000000
Si      -1.80667503      -3.19326354      -1.51126035       0.00000000
