10
Lattice="16.28999089631971 0.0 0.0 0.0 16.28999089631971 0.0 0.0 0.0 34.642051614445585" Properties=species:S:1:pos:R:3:initial_magmoms:R:1 pbc="T T T"
Si      -0.36840161       1.97019405      -1.10220677       0.00000000
Si       2.16172210      -0.48698955       0.85392705       0.00000000
Si      -1.92275824      -1.11627225       1.00552075       0.00000000
Si       0.58024003       1.16310600      -3.06530365       0.00000000
Si       1.49946844       3.10858812      -0.33415742       0.00000000
Si      -0.88084265      -1.72859706       3.13140072       0.00000000
Si      -2.46648586      -2.61017928      -0.85316492       0.00000000
Si       2.25299497      -2.89074195       0.67503540       0.00000000
Si       2.18542405       0.48637053       3.03360616       0.00000000
Si       2.21064097      -0.71956188      -3.03713965       0.00000000
