10
Lattice="16.28999089631971 0.0 0.0 0.0 16.28999089631971 0.0 0.0 0.0 34.642051614445585" Properties=species:S:1:pos:R:3:initial_magmoms:R:1 pbc="T T T"
Si      -2.16172210       0.48698955      -0.85392705       0.00000000
Si       0.02370195       0.97336008       2.17967911       0.00000000
Si       2.09655558       0.81327825      -0.82510485       0.00000000
Si       0.09127287      -2.40375240      -0.17889165       0.00000000
Si      -1.27233045      -2.86502004       1.77117980       0.00000000
Si       2.28496572      -0.37349712      -2.86462213       0.00000000
Si       2.42312121      -2.84081310      -0.05217096       0.00000000
Si       1.87874199      -0.17099613       3.28025770       0.00000000
Si      -0.35559441       3.32575011       1.77914748       0.00000000
Si      -0.66225366       3.59557767      -1.18808447       0.00000000
