10
Lattice="16.28999089631971 0.0 0.0 0.0 16.28999089631971 0.0 0.0 0.0 34.642051614445585" Properties=species:S:1:pos:R:3:initial_magmoms:R:1 pbc="T T T"
Si      -1.37467238      -1.28927205       1.37570592       0.00000000
Si       1.72098963      -1.45091772      -0.66052037       0.00000000
Si      -0.94662819       0.47213307      -2.13852433       0.00000000
Si       0.31462506       2.08067283       1.18832696       0.00000000
Si      -2.22362410       2.25333054      -1.23800369       0.00000000
Si       2.84602590      -0.19543113      -2.33134209       0.00000000
Si       0.99098586       0.94892508      -3.43192069       0.00000000
Si       0.01400940      -1.84181256       3.20899896       0.00000000
Si      -0.60354450       3.64169466      -0.29123589       0.00000000
Si       3.18392937      -1.77955218       1.16127150       0.00000000
