10
Lattice="16.28999089631971 0.0 0.0 0.0 16.28999089631971 0.0 0.0 0.0 34.642051614445585" Properties=species:S:1:pos:R:3:initial_magmoms:R:1 pbc="T T T"
Si       1.09412437      -1.35317772      -1.69261159       0.00000000
Si       1.91851077       0.87588072       1.21077502       0.00000000
Si      -1.36749893      -1.43571915       1.41107548       0.00000000
Si      -1.59425573       1.33763706      -1.66815429       0.00000000
Si       2.43314445       2.59377525      -0.34101655       0.00000000
Si       2.63401644      -2.55552633      -0.40122447       0.00000000
Si       0.96986913       1.68296877       3.17387190       0.00000000
Si      -2.58884168       0.31322412       2.71877901       0.00000000
Si      -2.80882184      -2.55756258      -0.27928438       0.00000000
Si       3.54891171      -1.00678716       1.23893903       0.00000000
