10
Lattice="16.28999089631971 0.0 0.0 0.0 16.28999089631971 0.0 0.0 0.0 34.642051614445585" Properties=species:S:1:pos:R:3:initial_magmoms:R:1 pbc="T T T"
Si       1.35997443       1.34198649       1.38216667       0.00000000
Si      -1.35317787      -1.37112930       1.38452233       0.00000000
Si       1.27865475      -1.40188482      -1.46671064       0.00000000
Si      -1.44891420       1.38717495      -1.50334463       0.00000000
Si      -0.55276872      -2.25023544      -2.79530131       0.00000000
Si      -2.37250833      -0.41990733      -2.77430822       0.00000000
Si       2.68878557      -2.72143998       0.02053582       0.00000000
Si      -2.73698079       2.69676063       0.00796768       0.00000000
Si       2.71910126       2.71827774       0.00289954       0.00000000
Si      -2.69845494      -2.74268214       0.03479796       0.00000000
