10
Lattice="16.28999089631971 0.0 0.0 0.0 16.28999089631971 0.0 0.0 0.0 34.642051614445585" Properties=species:S:1:pos:R:3:initial_magmoms:R:1 pbc="T T T"
Si       1.35963182      -1.35391077       1.36254194       0.00000000
Si      -1.35574052       1.36112405       1.36285371       0.00000000
Si      -1.35997443      -1.34198649      -1.38216667       0.00000000
Si       1.35912683       1.37629125      -1.37926713       0.00000000
Si      -2.71315230      -2.71311579       0.00235566       0.00000000
Si       2.71632818      -2.71021617       0.00135104       0.00000000
Si      -2.71165362       2.71916168       0.00180139       0.00000000
Si       0.00133089      -2.71204065       2.71954114       0.00000000
Si      -2.71347810       0.00236205       2.71967971       0.00000000
Si       2.71551368       2.71936368       0.00180139       0.00000000
