10
Lattice="16.28999089631971 0.0 0.0 0.0 16.28999089631971 0.0 0.0 0.0 34.642051614445585" Properties=species:S:1:pos:R:3:initial_magmoms:R:1 pbc="T T T"
Si       1.32683679       1.36174626       1.35831560       0.00000000
Si       1.35218403      -1.35689184      -1.35959736       0.00000000
Si      -1.36108489       1.35943308      -1.35772669       0.00000000
Si      -1.36982121      -1.36329381       1.37303848       0.00000000
Si      -0.28281069       2.44121940       2.78674676       0.00000000
Si       2.68850160      -0.00920385       2.62503757       0.00000000
Si       2.71088406       0.00034209      -2.71704691       0.00000000
Si       2.71238274      -2.71726974       0.00117783       0.00000000
Si       2.70953199       2.72142369      -0.00065820       0.00000000
Si      -0.00360009      -2.71461447      -2.71687370       0.00000000
