10
Lattice="16.28999089631971 0.0 0.0 0.0 16.28999089631971 0.0 0.0 0.0 34.56409401068381" Properties=species:S:1:pos:R:3:initial_magmoms:R:1 pbc="T T T"
Si       0.70205828      -1.65128472       1.51694981       0.00000000
Si      -1.68282120       0.94690512       1.35176791       0.00000000
Si       1.29944516       1.38212505      -1.40008854       0.00000000
Si      -1.43066829      -1.34216568      -1.41723234       0.00000000
Si      -1.85267703      -1.18416897       2.57430060       0.00000000
Si       2.20485964      -0.54511227       2.93532276       0.00000000
Si      -2.71765974       2.53345338      -0.09166403       0.00000000
Si      -0.79583980       2.90880756       2.19886520       0.00000000
Si       2.58347183      -2.78632468       0.11903881       0.00000000
Si       2.65441478       0.03357369      -2.74919501       0.00000000
