10
Lattice="16.28999089631971 0.0 0.0 0.0 16.28999089631971 0.0 0.0 0.0 34.56409401068381" Properties=species:S:1:pos:R:3:initial_magmoms:R:1 pbc="T T T"
Si       1.35783666       1.35679410      -1.35816227       0.00000000
Si      -1.35773892      -1.35923760      -1.35792032       0.00000000
Si      -1.35899325       1.35698958       1.35992504       0.00000000
Si       1.36179513      -1.36327752       1.36051263       0.00000000
Si      -2.71430496       2.71423980      -0.00076041       0.00000000
Si       2.73004110       0.00720018       2.69897335       0.00000000
Si       0.00029322       2.71352304      -2.71559869       0.00000000
Si      -2.71529865      -0.00138465      -2.71528761       0.00000000
Si       2.71520091      -0.00102627      -2.71559869       0.00000000
Si      -2.71011843      -0.00325800       2.72123264       0.00000000
