10
Lattice="16.28999089631971 0.0 0.0 0.0 16.28999089631971 0.0 0.0 0.0 34.56409401068381" Properties=species:S:1:pos:R:3:initial_magmoms:R:1 pbc="T T T"
Si       1.35330804       1.35452979      -1.37451109       0.00000000
Si      -1.36339155      -1.35847197      -1.37461479       0.00000000
Si      -1.25190279       1.51352019       1.38771459       0.00000000
Si       1.39949019      -1.42175862       1.36248278       0.00000000
Si      -2.71098180       0.09068643       2.63585928       0.00000000
Si      -2.70306486       2.70819621      -0.02478247       0.00000000
Si       2.70402597       2.72782566       0.00013826       0.00000000
Si      -2.71451673      -2.71871955      -0.01330718       0.00000000
Si       2.72564280      -2.70826137      -0.03556647       0.00000000
Si       2.71337643      -0.00115659      -2.73585326       0.00000000
