10
Lattice="16.28999089631971 0.0 0.0 0.0 16.28999089631971 0.0 0.0 0.0 34.56409401068381" Properties=species:S:1:pos:R:3:initial_magmoms:R:1 pbc="T T T"
Si       1.65986955       1.16045073      -1.14223334       0.00000000
Si       1.52381547      -1.15432569       1.41039901       0.00000000
Si      -1.18809486       1.57545477       1.41580484       0.00000000
Si      -1.37911140      -1.44536283      -1.48781714       0.00000000
Si      -2.89663893       0.14208138      -2.28123636       0.00000000
Si       0.16895988      -2.49258177       2.79680016       0.00000000
Si      -2.66328468      -2.65364100       0.05819905       0.00000000
Si      -2.55101400       0.22779936       2.79292898       0.00000000
Si      -2.42274654       3.03433830      -0.02724343       0.00000000
Si       2.90053224      -2.66370822      -0.01864043       0.00000000
