10
Lattice="16.28999089631971 0.0 0.0 0.0 16.28999089631971 0.0 0.0 0.0 34.56409401068381" Properties=species:S:1:pos:R:3:initial_magmoms:R:1 pbc="T T T"
Si       1.35643572       1.35638685      -1.35809314       0.00000000
Si      -1.35866745      -1.35860229      -1.35754012       0.00000000
Si      -1.36203948       1.35402480       1.36016699       0.00000000
Si       1.35650088      -1.36008468       1.36020155       0.00000000
Si      -2.69987202      -0.00641826       2.70993018       0.00000000
Si      -0.00100998       2.71350675      -2.71490741       0.00000000
Si       2.71472850       2.71404432      -0.00107149       0.00000000
Si       2.71388142      -0.00184077      -2.71590977       0.00000000
Si      -2.71549413       2.71464705      -0.00103692       0.00000000
Si      -2.71551042      -2.71583622      -0.00058759       0.00000000
