10
Lattice="16.28999089631971 0.0 0.0 0.0 16.28999089631971 0.0 0.0 0.0 34.56409401068381" Properties=species:S:1:pos:R:3:initial_magmoms:R:1 pbc="T T T"
Si      -1.20964653       1.43741331       1.39030689       0.00000000
Si       1.33783254       1.36044306      -1.34976319       0.00000000
Si       1.45116207      -1.19467602       1.41249706       0.00000000
Si      -1.37301894      -1.35425286      -1.35187160       0.00000000
Si      -0.00791694      -2.61750978       2.66064175       0.00000000
Si      -2.75784487       0.07237647       2.56707670       0.00000000
Si       2.69987202       0.00641826      -2.70993018       0.00000000
Si       2.70306486      -2.70819621       0.02478247       0.00000000
Si      -0.01563840      -2.70941796      -2.71051777       0.00000000
Si      -0.01562211       2.72106531      -2.71096710       0.00000000
