10
Lattice="16.28999089631971 0.0 0.0 0.0 16.28999089631971 0.0 0.0 0.0 34.56409401068381" Properties=species:S:1:pos:R:3:initial_magmoms:R:1 pbc="T T T"
Si      -1.33783254      -1.36044306       1.34976319       0.00000000
Si      -1.35345465       1.36062225      -1.36120391       0.00000000
Si       1.36203948      -1.35402480      -1.36016699       0.00000000
Si       1.37425698       1.37259540       1.39718515       0.00000000
Si      -2.54747907       0.07697025       2.74007008       0.00000000
Si       0.11332953      -2.55511908       2.76226024       0.00000000
Si      -2.71085148      -2.71469592      -0.00210841       0.00000000
Si      -2.71103067       2.71513575      -0.00221210       0.00000000
Si      -2.71116099       0.00200367      -2.71787992       0.00000000
Si       0.00337203      -2.71262709      -2.71770710       0.00000000
