10
Lattice="16.28999089631971 0.0 0.0 0.0 16.28999089631971 0.0 0.0 0.0 34.56409401068381" Properties=species:S:1:pos:R:3:initial_magmoms:R:1 pbc="T T T"
Si       1.35565749       1.35814617       1.35736729       0.00000000
Si       1.35762044      -1.35679736      -1.35729817       0.00000000
Si      -1.35743127       1.35754344      -1.35712535       0.00000000
Si      -1.35834351      -1.35786272       1.35774750       0.00000000
Si      -0.00124628       2.71441899       2.71200402       0.00000000
Si       2.71481527       0.00004887      -2.71335202       0.00000000
Si      -2.71324797      -0.00030951       2.71504567       0.00000000
Si      -2.71539825      -0.00004887      -2.71362854       0.00000000
Si       0.00244705      -2.71485406       2.71421613       0.00000000
Si      -2.71486068      -2.71433520      -0.00024195       0.00000000
