10
Lattice="16.28999089631971 0.0 0.0 0.0 16.28999089631971 0.0 0.0 0.0 34.56409401068381" Properties=species:S:1:pos:R:3:initial_magmoms:R:1 pbc="T T T"
Si       0.90435564       1.32330186       1.63951415       0.00000000
Si      -0.59710995       1.74500339      -1.40717418       0.00000000
Si       1.33864704      -1.60410888      -1.07656844       0.00000000
Si      -2.02339719      -0.75445506       1.03979222       0.00000000
Si      -1.76604777       0.29344806      -2.88188664       0.00000000
Si      -1.05726987       2.50331918       2.14840159       0.00000000
Si      -0.86892489      -2.52496629       2.24334921       0.00000000
Si      -0.25663266      -3.32790039      -1.29905764       0.00000000
Si      -2.00249712      -2.04981957      -2.23166654       0.00000000
Si       2.20814208       2.98279741       0.56605648       0.00000000
