10
Lattice="16.28999089631971 0.0 0.0 0.0 16.28999089631971 0.0 0.0 0.0 34.56409401068381" Properties=species:S:1:pos:R:3:initial_magmoms:R:1 pbc="T T T"
Si      -0.26182917      -0.85190184       2.20394612       0.00000000
Si       1.56786363       1.83868488      -0.14160917       0.00000000
Si      -2.18745458       1.12552497       0.25214521       0.00000000
Si       0.59552982      -2.00953114      -1.38149305       0.00000000
Si       2.68061724       1.59304797       1.95266502       0.00000000
Si      -2.36902931       2.14933518      -1.83805042       0.00000000
Si      -1.86946483      -2.54465275       2.09430875       0.00000000
Si      -1.41665496      -3.13185743      -1.80130877       0.00000000
Si      -3.10887224      -1.51701114      -1.78285153       0.00000000
Si       0.39006405       3.90655377       0.05855161       0.00000000
