10
Lattice="16.28999089631971 0.0 0.0 0.0 16.28999089631971 0.0 0.0 0.0 34.56409401068381" Properties=species:S:1:pos:R:3:initial_magmoms:R:1 pbc="T T T"
Si      -1.76870943      -1.51148394      -0.13535307       0.00000000
Si      -0.18157473       1.02381021      -2.09019563       0.00000000
Si      -0.50789601       1.49198481       1.79335902       0.00000000
Si       2.18745458      -1.12552497      -0.25214521       0.00000000
Si       1.92562541      -1.97742681       1.95180092       0.00000000
Si      -0.92141766      -2.64253611      -2.03499674       0.00000000
Si      -0.08875431      -0.89725320      -3.45343882       0.00000000
Si       1.47459929       2.75183712       1.88941269       0.00000000
Si       2.57751863       2.78102880      -0.19359360       0.00000000
Si       1.22647164       2.91861414      -2.14383913       0.00000000
