10
Lattice="16.28999089631971 0.0 0.0 0.0 16.28999089631971 0.0 0.0 0.0 34.56409401068381" Properties=species:S:1:pos:R:3:initial_magmoms:R:1 pbc="T T T"
Si      -1.35646830      -1.35848337       1.35695253       0.00000000
Si      -1.35708732       1.35755973      -1.35740186       0.00000000
Si       1.35829278      -1.35762815      -1.35698709       0.00000000
Si       1.35808101       1.35811359       1.35812770       0.00000000
Si      -0.00162900      -2.71032067       2.71559869       0.00000000
Si      -0.00291591       2.71538010       2.71269531       0.00000000
Si       2.71487511      -0.00058644      -2.71349028       0.00000000
Si       0.00027693       2.71544526      -2.71359397       0.00000000
Si      -2.71049310      -0.00469152       2.71870946       0.00000000
Si      -2.71508688      -0.00058644      -2.71459633       0.00000000
