10
Lattice="16.28999089631971 0.0 0.0 0.0 16.28999089631971 0.0 0.0 0.0 34.56409401068381" Properties=species:S:1:pos:R:3:initial_magmoms:R:1 pbc="T T T"
Si       1.35483930      -1.35183730       1.35864617       0.00000000
Si      -1.35402480       1.35379185       1.36175694       0.00000000
Si      -1.35860229      -1.35642854      -1.35677970       0.00000000
Si       1.35646830       1.35848337      -1.35695253       0.00000000
Si       0.01422117       2.72426955       2.70021766       0.00000000
Si       2.71308321      -2.71537588       0.00069128       0.00000000
Si       2.71476108       0.00085523      -2.71393961       0.00000000
Si      -0.00074934      -2.71469170      -2.71407787       0.00000000
Si      -2.71554300       0.00079332      -2.71428526       0.00000000
Si      -0.00061902       2.71604310      -2.71435438       0.00000000
