10
Lattice="16.28999089631971 0.0 0.0 0.0 16.28999089631971 0.0 0.0 0.0 34.56409401068381" Properties=species:S:1:pos:R:3:initial_magmoms:R:1 pbc="T T T"
Si      -1.82280213       1.72351458      -0.10638834       0.00000000
Si      -0.88285284      -2.00691890      -1.26159014       0.00000000
Si       1.92880116       0.95480577      -1.40613726       0.00000000
Si      -0.61388865      -0.33074402       2.52487391       0.00000000
Si       1.69901442       0.25501995       2.03990484       0.00000000
Si      -2.19240594      -0.57041879      -2.80073010       0.00000000
Si       0.54069768       2.17507338      -2.84473022       0.00000000
Si      -1.79268192      -3.25292471       0.52755206       0.00000000
Si      -0.78545493       3.46157613      -1.44668096       0.00000000
Si      -3.56666292       0.78581331      -1.41014670       0.00000000
