10
Lattice="16.28999089631971 0.0 0.0 0.0 16.28999089631971 0.0 0.0 0.0 34.56409401068381" Properties=species:S:1:pos:R:3:initial_magmoms:R:1 pbc="T T T"
Si      -1.33850043       1.19848788      -1.46670050       0.00000000
Si      -1.35558864      -1.34412048       1.34880922       0.00000000
Si       1.21759605      -1.39303935      -1.45188978       0.00000000
Si       1.35625653       1.37194380       1.34925855       0.00000000
Si       0.47648250       2.09285775      -2.70059476       0.00000000
Si       2.13416919       0.34454979      -2.86574662       0.00000000
Si      -2.00834523      -0.56197242      -3.00262051       0.00000000
Si       2.71262709      -2.69324199      -0.03563560       0.00000000
Si      -0.00141723      -2.70073539       2.70759364       0.00000000
Si      -0.35173368      -2.58216048      -2.80304732       0.00000000
