10
Lattice="16.28999089631971 0.0 0.0 0.0 16.28999089631971 0.0 0.0 0.0 34.56409401068381" Properties=species:S:1:pos:R:3:initial_magmoms:R:1 pbc="T T T"
Si      -1.35650088       1.36008468      -1.36020155       0.00000000
Si       1.36006839      -1.35568638      -1.36134217       0.00000000
Si      -1.35330804      -1.35452979       1.37451109       0.00000000
Si       1.35071793       1.37329587       1.37464935       0.00000000
Si      -2.60521083       0.15899040       2.76222568       0.00000000
Si       2.71166598      -2.71319724      -0.00553026       0.00000000
Si       2.71314837       2.71648782      -0.00293795       0.00000000
Si      -2.71669959      -2.71300176      -0.00010369       0.00000000
Si       0.00013032      -2.71319724      -2.71819100       0.00000000
Si      -2.71854036       2.71410948      -0.00003456       0.00000000
