10
Lattice="16.28999089631971 0.0 0.0 0.0 16.28999089631971 0.0 0.0 0.0 34.56409401068381" Properties=species:S:1:pos:R:3:initial_magmoms:R:1 pbc="T T T"
Si      -0.49946769      -2.24158545      -0.26078624       0.00000000
Si       2.19208014       0.65041083       0.58727885       0.00000000
Si      -0.22612149       0.55434870      -2.29263764       0.00000000
Si      -1.36251189       1.06324830       1.66346708       0.00000000
Si      -0.87464268       2.79127521      -1.96096041       0.00000000
Si      -2.65193055      -1.90861785      -1.39193141       0.00000000
Si       0.01011609       2.94404283       2.07007931       0.00000000
Si       1.45116207      -2.94155046      -1.48808877       0.00000000
Si      -2.60192025       0.15257214      -2.55518664       0.00000000
Si      -0.56345481      -3.19409433       1.91018572       0.00000000
