10
Lattice="16.28999089631971 0.0 0.0 0.0 16.28999089631971 0.0 0.0 0.0 34.56409401068381" Properties=species:S:1:pos:R:3:initial_magmoms:R:1 pbc="T T T"
Si      -0.64852119       2.23692651       0.33167723       0.00000000
Si       0.22612149      -0.55434870       2.29263764       0.00000000
Si       0.39860001      -1.36484136      -1.93493363       0.00000000
Si      -2.37579876      -0.40177656      -0.26254900       0.00000000
Si      -0.27334620      -2.79593415       2.03185140       0.00000000
Si       2.47032963      -0.29338290      -2.45899471       0.00000000
Si      -2.42580906      -2.46296655       0.90070623       0.00000000
Si      -3.01475772       1.88861373       0.79010107       0.00000000
Si       2.41820163       0.09606213       2.87991649       0.00000000
Si       0.33357033       3.14998101      -2.05832751       0.00000000
