10
Lattice="16.28999089631971 0.0 0.0 0.0 16.28999089631971 0.0 0.0 0.0 34.56409401068381" Properties=species:S:1:pos:R:3:initial_magmoms:R:1 pbc="T T T"
Si      -1.62673569       1.18206756       1.27171742       0.00000000
Si      -0.56014794      -2.29482117      -0.47415051       0.00000000
Si       1.63931157      -0.34324659       1.73411613       0.00000000
Si       0.46284777       1.19307960      -2.04830392       0.00000000
Si       1.26190485      -3.06426303      -1.80158528       0.00000000
Si      -0.57728502       2.30145120       3.02805828       0.00000000
Si      -3.02681232      -0.31785048       2.39688300       0.00000000
Si      -1.57995081       2.12986863      -2.87981279       0.00000000
Si       1.83547575       3.07387413      -1.64169169       0.00000000
Si       1.53800406      -2.56261248       2.64536441       0.00000000
