10
Lattice="16.28999089631971 0.0 0.0 0.0 16.28999089631971 0.0 0.0 0.0 34.56409401068381" Properties=species:S:1:pos:R:3:initial_magmoms:R:1 pbc="T T T"
Si       1.33850043      -1.19848788       1.46670050       0.00000000
Si       1.81498293       0.89436987      -1.23389426       0.00000000
Si      -0.66984480      -1.76046030      -1.53592001       0.00000000
Si      -1.37671677       1.50938253       1.42903944       0.00000000
Si       0.69960663       0.41412438      -3.30218077       0.00000000
Si      -2.57585625      -2.47335957      -0.12210810       0.00000000
Si       2.55609648      -2.59152723       0.01481072       0.00000000
Si      -0.01708821      -2.54260836       2.81550972       0.00000000
Si       3.47266962      -0.85393809      -1.39904612       0.00000000
Si       2.69431713       2.79930618      -0.03432908       0.00000000
