10
Lattice="16.28999089631971 0.0 0.0 0.0 16.28999089631971 0.0 0.0 0.0 34.56409401068381" Properties=species:S:1:pos:R:3:initial_magmoms:R:1 pbc="T T T"
Si       1.35731538       1.35547461      -1.35674514       0.00000000
Si       1.35731538      -1.35703845       1.35764381       0.00000000
Si      -1.35744570       1.35822762       1.35781663       0.00000000
Si      -1.35988920      -1.35917244      -1.35643406       0.00000000
Si      -2.71117728      -0.00102627      -2.71456177       0.00000000
Si       0.00268785      -2.71393029       2.71476915       0.00000000
Si       2.71446786      -2.71423980       0.00089867       0.00000000
Si       2.71515204       0.00130320      -2.71404331       0.00000000
Si       0.00330687      -2.71476108      -2.71449264       0.00000000
Si      -2.71479366      -2.71471221       0.00048390       0.00000000
