10
Lattice="16.28999089631971 0.0 0.0 0.0 16.28999089631971 0.0 0.0 0.0 34.56409401068381" Properties=species:S:1:pos:R:3:initial_magmoms:R:1 pbc="T T T"
Si      -1.50799788       1.10441313      -1.42825829       0.00000000
Si       0.98344359      -1.64185281      -1.52669689       0.00000000
Si       1.71822033       1.76441877      -0.18768314       0.00000000
Si      -0.98209152      -0.91305450       2.39000474       0.00000000
Si      -2.32544637       2.58271434       0.28902512       0.00000000
Si      -0.33357033      -3.14998101       2.05832751       0.00000000
Si       2.25487809      -0.30556782      -3.03510936       0.00000000
Si       3.51992691       0.85483404      -1.43990640       0.00000000
Si       2.07643743       2.64591954       1.97547733       0.00000000
Si      -0.24332373       3.64773825       1.41170208       0.00000000
