10
Lattice="16.28999089631971 0.0 0.0 0.0 16.28999089631971 0.0 0.0 0.0 34.56409401068381" Properties=species:S:1:pos:R:3:initial_magmoms:R:1 pbc="T T T"
Si       1.47624867       1.23999480       1.37869335       0.00000000
Si      -1.36415718      -1.29441969       1.44564404       0.00000000
Si       1.21736799      -1.45231866      -1.54553433       0.00000000
Si      -1.47763332       1.26109035      -1.52303309       0.00000000
Si       2.63187756       2.65742028      -0.17413400       0.00000000
Si       2.58611895      -2.76244191      -0.16929503       0.00000000
Si      -2.63813292       2.74637997       0.03681078       0.00000000
Si      -2.73856077      -2.66662413      -0.15795800       0.00000000
Si       2.57979843      -0.10912671      -2.92312163       0.00000000
Si      -0.13359429       2.60245782      -2.92194645       0.00000000
