10
Lattice="16.28999089631971 0.0 0.0 0.0 16.28999089631971 0.0 0.0 0.0 34.56409401068381" Properties=species:S:1:pos:R:3:initial_magmoms:R:1 pbc="T T T"
Si       1.44471123       1.46108268       1.10757245       0.00000000
Si      -0.18915948      -2.05646589       1.12115614       0.00000000
Si      -2.34382149       0.47496753       0.00691282       0.00000000
Si       1.34112312       0.21491397      -1.97271220       0.00000000
Si      -2.50836678      -1.33788141      -1.50350437       0.00000000
Si       3.02677974       1.10793177      -0.63476994       0.00000000
Si      -1.23861015      -3.17584953      -0.63518471       0.00000000
Si      -0.13624956       1.39582494      -3.31300483       0.00000000
Si      -1.26622170      -1.41890787       3.10866179       0.00000000
Si      -2.99143044      -0.02998989       2.23826829       0.00000000
