10
Lattice="16.28999089631971 0.0 0.0 0.0 16.28999089631971 0.0 0.0 0.0 34.56409401068381" Properties=species:S:1:pos:R:3:initial_magmoms:R:1 pbc="T T T"
Si       1.47737268      -1.18091097       1.34029262       0.00000000
Si      -1.33864704       1.60410888       1.07656844       0.00000000
Si      -1.59527970      -1.72379151      -0.22248920       0.00000000
Si       0.82231920       0.27289008      -2.20629648       0.00000000
Si      -3.34114416      -0.44571069      -1.15509810       0.00000000
Si       2.35985085      -2.67986790      -0.23558900       0.00000000
Si       0.13624956      -1.39582494       3.31300483       0.00000000
Si       2.26154070      -1.61433900      -2.37272269       0.00000000
Si      -1.93575699       3.34911227      -0.33060574       0.00000000
Si      -0.43429140       2.92741074       2.71608259       0.00000000
