10
Lattice="16.28999089631971 0.0 0.0 0.0 16.28999089631971 0.0 0.0 0.0 34.56409401068381" Properties=species:S:1:pos:R:3:initial_magmoms:R:1 pbc="T T T"
Si      -0.94154571      -0.10516824      -2.15991144       0.00000000
Si      -0.12650814      -2.25945558       0.67769857       0.00000000
Si      -1.07007381       1.78536675       1.13249317       0.00000000
Si       2.42851320       0.54643176       0.03601581       0.00000000
Si      -0.06924879      -2.15534619       2.97895446       0.00000000
Si       2.26720962       1.21256637       2.64882082       0.00000000
Si      -2.80073970      -1.68526566      -1.74925521       0.00000000
Si       2.42103609       2.38064896      -1.70159130       0.00000000
Si       0.26883387       3.28908851      -1.95390933       0.00000000
Si       0.90984537      -0.21628233      -3.75297143       0.00000000
