10
Lattice="16.28999089631971 0.0 0.0 0.0 16.28999089631971 0.0 0.0 0.0 34.56409401068381" Properties=species:S:1:pos:R:3:initial_magmoms:R:1 pbc="T T T"
Si       0.05725935       0.10410939       2.30125589       0.00000000
Si       0.12650814       2.25945558      -0.67769857       0.00000000
Si       1.08398547      -1.63202994      -1.45148538       0.00000000
Si      -0.81503757       2.15428734      -2.83761001       0.00000000
Si      -2.67423156       0.57418992      -2.42695378       0.00000000
Si       2.55502134       2.80588734      -0.64168276       0.00000000
Si       1.99752867      -3.30592518       0.12266804       0.00000000
Si      -1.60261020      -1.05634134       3.44348923       0.00000000
Si      -0.54941283      -2.84009634      -2.72769613       0.00000000
Si       1.29880170       1.81483632       3.44475774       0.00000000
