10
Lattice="16.28999089631971 0.0 0.0 0.0 16.28999089631971 0.0 0.0 0.0 34.56409401068381" Properties=species:S:1:pos:R:3:initial_magmoms:R:1 pbc="T T T"
Si      -0.92522313      -1.76858090      -1.23376603       0.00000000
Si       1.74632058       0.91012230      -1.28523199       0.00000000
Si      -1.67229882       1.77995943       0.17848908       0.00000000
Si       1.32431184       1.06811901       2.70630095       0.00000000
Si      -0.43904808      -0.80681764       3.12743010       0.00000000
Si       0.40684275       2.28200094      -2.63941939       0.00000000
Si      -2.47567275      -1.55802773       1.94796430       0.00000000
Si      -2.33549730      -0.42433169      -2.60651435       0.00000000
Si       1.49416767       3.19919310       1.48376826       0.00000000
Si      -2.11701582      -3.23275769       0.20479237       0.00000000
