10
Lattice="16.28999089631971 0.0 0.0 0.0 16.28999089631971 0.0 0.0 0.0 34.56409401068381" Properties=species:S:1:pos:R:3:initial_magmoms:R:1 pbc="T T T"
Si      -1.95621723       0.30941715      -1.24963095       0.00000000
Si      -0.16661412      -0.51487070       2.29709641       0.00000000
Si       2.07575325      -0.76744863      -0.86942571       0.00000000
Si       0.62903835       2.31659764       0.26085536       0.00000000
Si      -0.44114949      -2.71760598      -0.30703302       0.00000000
Si       1.77943815       0.64435909       3.00130565       0.00000000
Si       1.36752921      -1.46179359      -3.11598938       0.00000000
Si      -1.24082559       1.52387737      -3.20322920       0.00000000
Si       3.07779417      -2.11956750       0.85573832       0.00000000
Si      -3.59665281       1.34354707       0.20683165       0.00000000
