10
Lattice="16.28999089631971 0.0 0.0 0.0 16.28999089631971 0.0 0.0 0.0 34.56409401068381" Properties=species:S:1:pos:R:3:initial_magmoms:R:1 pbc="T T T"
Si       2.21499921      -0.72760262       0.06442751       0.00000000
Si      -0.24772203       1.27601036       1.95992348       0.00000000
Si      -1.22365593      -2.00509605      -0.40578269       0.00000000
Si       0.12830004       1.43109116      -1.91308911       0.00000000
Si      -3.15275031      -0.84154759      -1.12606425       0.00000000
Si      -2.36744199       2.32228448       1.64010174       0.00000000
Si       0.30128355      -3.21531273      -1.80725379       0.00000000
Si       2.41125624      -2.27674809      -1.71417264       0.00000000
Si      -3.63267000       0.43823684       0.82608231       0.00000000
Si       1.89700947       2.94257510      -1.77773604       0.00000000
