10
Lattice="16.28999089631971 0.0 0.0 0.0 16.28999089631971 0.0 0.0 0.0 34.56409401068381" Properties=species:S:1:pos:R:3:initial_magmoms:R:1 pbc="T T T"
Si       1.35729909       1.35672894      -1.35812770       0.00000000
Si      -1.36099692       1.35726651       1.35456760       0.00000000
Si      -1.35808101      -1.35811359      -1.35812770       0.00000000
Si       1.35894438      -1.35896067       1.35705622       0.00000000
Si      -2.70032814       0.00767259       2.69904248       0.00000000
Si       2.72494233      -0.00664632       2.69907705       0.00000000
Si      -2.71259451       2.71477737      -0.00124431       0.00000000
Si       2.71480995       2.71355562      -0.00107149       0.00000000
Si      -0.00081450       2.71446786      -2.71511479       0.00000000
Si       2.71476108      -0.00110772      -2.71511479       0.00000000
