10
Lattice="16.28999089631971 0.0 0.0 0.0 16.28999089631971 0.0 0.0 0.0 34.56409401068381" Properties=species:S:1:pos:R:3:initial_magmoms:R:1 pbc="T T T"
Si       1.34403903      -1.38293955       1.31156984       0.00000000
Si      -1.34208423      -1.35690813      -1.34786216       0.00000000
Si      -1.40225949       1.29774285       1.34838062       0.00000000
Si       1.37158255       1.35676152      -1.34343796       0.00000000
Si       2.70103905       0.06815736       2.57315998       0.00000000
Si      -2.70319518       0.00029322      -2.70419253       0.00000000
Si       0.01273878      -2.71479366      -2.70481469       0.00000000
Si       0.01308087       2.71684620      -2.70384689       0.00000000
Si      -2.71280628      -2.71257822       0.02187908       0.00000000
Si      -0.13721067       2.45814471       2.94358358       0.00000000
