10
Lattice="16.28999089631971 0.0 0.0 0.0 16.28999089631971 0.0 0.0 0.0 34.56409401068381" Properties=species:S:1:pos:R:3:initial_magmoms:R:1 pbc="T T T"
Si       1.36107837       1.34931699      -1.35446391       0.00000000
Si       1.30360725      -1.42627095       1.33911744       0.00000000
Si      -1.35571896      -1.36541151      -1.35584647       0.00000000
Si      -1.30363983       1.40113548       1.39314115       0.00000000
Si       0.00232947       2.70565497      -2.71349028       0.00000000
Si      -2.71063971      -0.00777033      -2.71418156       0.00000000
Si      -2.71814940      -2.70860346       0.02174083       0.00000000
Si      -2.45926872      -0.01629000       2.94596851       0.00000000
Si       2.72684826       2.70112635       0.02167170       0.00000000
Si       2.70586674      -2.72401380      -0.00926318       0.00000000
