10
Lattice="16.28999089631971 0.0 0.0 0.0 16.28999089631971 0.0 0.0 0.0 34.56409401068381" Properties=species:S:1:pos:R:3:initial_magmoms:R:1 pbc="T T T"
Si       1.71600489      -0.88026273       1.34174432       0.00000000
Si      -0.01516599      -1.75888017      -1.60042214       0.00000000
Si       0.44114949       2.71760598       0.30703302       0.00000000
Si       0.55522836      -0.06566499       3.18394243       0.00000000
Si       2.51690274       1.95015735      -0.56239269       0.00000000
Si      -2.56761351       1.13024907      -1.83957124       0.00000000
Si       0.27453537       2.20273528       2.60412943       0.00000000
Si      -1.51506774       3.02702313      -0.94259793       0.00000000
Si       0.17896194      -0.43896663      -3.50407524       0.00000000
Si       1.80867870       1.25581239      -2.80895636       0.00000000
