10
Lattice="16.28999089631971 0.0 0.0 0.0 16.28999089631971 0.0 0.0 0.0 34.56409401068381" Properties=species:S:1:pos:R:3:initial_magmoms:R:1 pbc="T T T"
Si       0.94447791       1.20006801      -1.83072283       0.00000000
Si      -1.07276166      -1.93694616      -0.97429323       0.00000000
Si       1.89082917      -0.73984293       1.38021417       0.00000000
Si      -1.45705905       1.80918369       1.13874928       0.00000000
Si      -1.85056029      -0.95680944      -2.94835343       0.00000000
Si      -0.98461647       2.36361647      -2.55100438       0.00000000
Si       3.11191128      -2.07570438      -0.31615794       0.00000000
Si       3.22410051       1.19915577       1.79501810       0.00000000
Si      -2.92809492      -2.62873359       0.32894667       0.00000000
Si      -1.46453616       3.64340089      -0.59885783       0.00000000
