10
Lattice="16.28999089631971 0.0 0.0 0.0 16.28999089631971 0.0 0.0 0.0 34.56409401068381" Properties=species:S:1:pos:R:3:initial_magmoms:R:1 pbc="T T T"
Si      -1.34880385      -1.34390871       1.37734881       0.00000000
Si       1.36435266       1.37161800       1.37337394       0.00000000
Si       1.25208198      -1.50982236      -1.36135599       0.00000000
Si      -1.40058488       1.36052451      -1.37420693       0.00000000
Si      -2.71314091      -2.71028133      -0.01026554       0.00000000
Si      -2.70711576       2.73119769       0.02004027       0.00000000
Si       0.00910611      -2.70448209       2.73461241       0.00000000
Si      -2.70851571       0.01063737       2.73523456       0.00000000
Si       2.72727180       2.71927341      -0.00375021       0.00000000
Si       2.72414412       0.00992061       2.73488892       0.00000000
