10
Lattice="16.28999089631971 0.0 0.0 0.0 16.28999089631971 0.0 0.0 0.0 34.56409401068381" Properties=species:S:1:pos:R:3:initial_magmoms:R:1 pbc="T T T"
Si      -1.35754281      -1.35767376       1.35660688       0.00000000
Si       1.35756592      -1.35738054      -1.35754012       0.00000000
Si       1.35736392       1.35827649       1.35705622       0.00000000
Si      -1.35838989       1.35876519      -1.35781663       0.00000000
Si      -2.71236582       0.00021177       2.71355941       0.00000000
Si      -0.00140668      -2.71546155       2.71169295       0.00000000
Si       2.71431278      -2.71448415       0.00000000       0.00000000
Si      -2.71505367      -2.71450044      -0.00044933       0.00000000
Si      -2.71625913       0.00027693      -2.71380136       0.00000000
Si       2.71527389       2.71534752      -0.00013826       0.00000000
