10
Lattice="16.28999089631971 0.0 0.0 0.0 16.28999089631971 0.0 0.0 0.0 34.56409401068381" Properties=species:S:1:pos:R:3:initial_magmoms:R:1 pbc="T T T"
Si       1.35604476      -1.35705637      -1.36217171       0.00000000
Si       1.36068741       1.35711990       1.36085827       0.00000000
Si      -1.36096597       1.35940050      -1.36106565       0.00000000
Si      -1.35067395      -1.38013441       1.36932648       0.00000000
Si       0.00571779       2.70567126       2.70996474       0.00000000
Si      -2.72439566      -0.01861947       2.69282094       0.00000000
Si       2.71264338      -2.71014889      -0.00193559       0.00000000
Si      -2.71417642      -2.71359973      -0.00421682       0.00000000
Si       2.71181259       2.71736748      -0.00044933       0.00000000
Si       2.71306692       0.00114030      -2.71829469       0.00000000
