10
Lattice="16.28999089631971 0.0 0.0 0.0 16.28999089631971 0.0 0.0 0.0 34.56409401068381" Properties=species:S:1:pos:R:3:initial_magmoms:R:1 pbc="T T T"
Si      -0.78964146      -0.38877714       2.17059175       0.00000000
Si       1.94157252       1.30854312       0.25435731       0.00000000
Si      -1.62007308       1.12710510      -1.29283609       0.00000000
Si       0.33071958      -1.98276993      -1.25073700       0.00000000
Si      -0.76859478       1.91632302       2.76671902       0.00000000
Si       0.32597919      -1.02161106      -3.40743398       0.00000000
Si      -3.51676828      -0.20059506      -0.83071390       0.00000000
Si       2.58918147       1.81350054      -1.97699815       0.00000000
Si      -1.90405665       3.20798970      -0.18916939       0.00000000
Si       3.66678126      -0.08037486       1.12475081       0.00000000
