10
Lattice="16.28999089631971 0.0 0.0 0.0 16.28999089631971 0.0 0.0 0.0 34.56409401068381" Properties=species:S:1:pos:R:3:initial_magmoms:R:1 pbc="T T T"
Si      -1.35606934       1.35529107       1.35726360       0.00000000
Si       1.35634775       1.35576565      -1.35715991       0.00000000
Si      -1.35824246      -1.35966114      -1.35677970       0.00000000
Si       1.35704822      -1.36148562       1.35888812       0.00000000
Si       0.00743313       2.68875639       2.73080690       0.00000000
Si       2.71415183       2.71183444      -0.00069128       0.00000000
Si      -0.00089595       2.71334778      -2.71425069       0.00000000
Si       2.71382603      -0.00208512      -2.71452720       0.00000000
Si      -2.71685990       2.71228241       0.00079497       0.00000000
Si      -2.71575218      -0.00211770      -2.71435438       0.00000000
