10
Lattice="16.28999089631971 0.0 0.0 0.0 16.28999089631971 0.0 0.0 0.0 34.53561885213415" Properties=species:S:1:pos:R:3:initial_magmoms:R:1 pbc="T T T"
Si      -1.35700587      -1.35790355       1.35804490       0.00000000
Si      -1.35575154       1.36071078      -1.35707790       0.00000000
Si       1.35814617       1.35778998       1.35773408       0.00000000
Si       1.36402686      -1.36363763      -1.35946086       0.00000000
Si      -2.71192662      -0.01058230      -2.68699007       0.00000000
Si       0.00065160       2.71442444       2.71474291       0.00000000
Si      -2.71410948       0.00041967       2.71512280       0.00000000
Si      -2.71580364       2.71349591       0.00055257       0.00000000
Si       0.00024435      -2.71459991       2.71498466       0.00000000
Si       2.71487511       0.00045702       2.71477744       0.00000000
