10
Lattice="16.28999089631971 0.0 0.0 0.0 16.28999089631971 0.0 0.0 0.0 34.53561885213415" Properties=species:S:1:pos:R:3:initial_magmoms:R:1 pbc="T T T"
Si      -1.35674523       1.35536309      -1.35870108       0.00000000
Si       1.36304946       1.34928366       1.36339792       0.00000000
Si       1.35633798      -1.36125409      -1.35842479       0.00000000
Si      -1.38025170      -1.35796351       1.37106483       0.00000000
Si       0.04479750      -2.62519519       2.76709894       0.00000000
Si      -2.71412577       2.70747381       0.00034536       0.00000000
Si       2.71485882       2.71095987      -0.00224482       0.00000000
Si       0.00014661       2.71133454      -2.71605526       0.00000000
Si      -2.71461447      -0.00267023      -2.71567537       0.00000000
Si       2.71437012      -0.00263287      -2.71602073       0.00000000
