10
Lattice="16.28999089631971 0.0 0.0 0.0 16.28999089631971 0.0 0.0 0.0 34.53561885213415" Properties=species:S:1:pos:R:3:initial_magmoms:R:1 pbc="T T T"
Si       0.35179884       1.77025059       1.54329406       0.00000000
Si      -0.60318612      -1.61911849       1.64842054       0.00000000
Si      -1.92005343       0.68810589      -1.24462986       0.00000000
Si       1.48442625      -0.70465001      -1.78069204       0.00000000
Si       0.90204246      -3.29154830       1.01596940       0.00000000
Si      -2.94135498      -1.23890337       1.64710819       0.00000000
Si       1.22883615      -3.08214035      -1.37551993       0.00000000
Si       0.67315167       3.30481746      -1.62738834       0.00000000
Si       3.60139320       0.16586478      -1.02142603       0.00000000
Si      -3.32824248       1.72455714       0.29407096       0.00000000
