10
Lattice="16.28999089631971 0.0 0.0 0.0 16.28999089631971 0.0 0.0 0.0 34.53561885213415" Properties=species:S:1:pos:R:3:initial_magmoms:R:1 pbc="T T T"
Si      -1.12246245      -0.53231485       2.01031950       0.00000000
Si       2.33816886      -0.38021512       0.00131235       0.00000000
Si      -1.14660423      -0.79143092      -1.95485526       0.00000000
Si      -0.48412251       2.54039292       0.93943843       0.00000000
Si      -0.38688750       2.96346051      -1.35303723       0.00000000
Si      -2.24873676      -2.26677698       1.08749271       0.00000000
Si      -2.11374153       1.56564819       2.35760987       0.00000000
Si       2.94135498       1.23890337      -1.64710819       0.00000000
Si       1.02130155       1.92700926      -2.89173805       0.00000000
Si       1.78553061       2.77918803       1.71908046       0.00000000
