10
Lattice="16.28999089631971 0.0 0.0 0.0 16.28999089631971 0.0 0.0 0.0 34.53561885213415" Properties=species:S:1:pos:R:3:initial_magmoms:R:1 pbc="T T T"
Si       1.40818905      -1.03645125      -1.53870082       0.00000000
Si      -0.09723501      -0.42306759       2.29247566       0.00000000
Si      -2.23575363      -0.09060498      -0.78382084       0.00000000
Si       0.73604736       2.23125759       0.39871394       0.00000000
Si       0.38688750      -2.96346051       1.35303723       0.00000000
Si      -0.11740203       2.03102091       2.58312759       0.00000000
Si      -0.55188891       3.24047196      -1.28365513       0.00000000
Si      -0.38789748      -2.44825342      -2.57072930       0.00000000
Si      -2.70545949       2.20131657      -1.15052025       0.00000000
Si       2.03051592       0.89595000      -2.97420916       0.00000000
