10
Lattice="16.28999089631971 0.0 0.0 0.0 16.28999089631971 0.0 0.0 0.0 34.53561885213415" Properties=species:S:1:pos:R:3:initial_magmoms:R:1 pbc="T T T"
Si       1.74873150      -1.20788069       0.87710160       0.00000000
Si      -0.29264985      -0.62705097      -2.21808590       0.00000000
Si       0.74701053       2.19962241      -0.47621191       0.00000000
Si      -2.17129410       0.23442939       1.13694774       0.00000000
Si      -0.13080870       2.97875682       1.58200851       0.00000000
Si      -2.07251154       0.86188761      -2.56679223       0.00000000
Si       1.39707927      -0.27798885       3.11449292       0.00000000
Si      -3.39599259      -0.11771154      -0.86131882       0.00000000
Si      -0.71649936       2.83825557      -2.25075661       0.00000000
Si       1.19052207      -3.48036569       0.38852593       0.00000000
