10
Lattice="16.28999089631971 0.0 0.0 0.0 16.28999089631971 0.0 0.0 0.0 34.53561885213415" Properties=species:S:1:pos:R:3:initial_magmoms:R:1 pbc="T T T"
Si       1.17538377       1.34737848      -1.53106845       0.00000000
Si      -1.43225541      -1.18519524      -1.58301005       0.00000000
Si       0.60942030      -1.50436521       1.83194293       0.00000000
Si      -0.68277254       1.96902117       1.32810250       0.00000000
Si      -2.99619919       1.39743765       1.21972967       0.00000000
Si       2.11502355       3.15367884      -0.17440497       0.00000000
Si       0.90294981      -0.17568765       3.83193627       0.00000000
Si       2.55620562       0.07288146      -3.01261279       0.00000000
Si      -0.14729418      -2.63095880      -3.01174940       0.00000000
Si      -2.50824853      -3.08539768      -0.56210205       0.00000000
