10
Lattice="16.28999089631971 0.0 0.0 0.0 16.28999089631971 0.0 0.0 0.0 34.53561885213415" Properties=species:S:1:pos:R:3:initial_magmoms:R:1 pbc="T T T"
Si      -1.73840364       0.19098396      -1.51998251       0.00000000
Si       0.76098735       2.18927826       0.01744050       0.00000000
Si       0.55141650      -2.02430943      -1.03099241       0.00000000
Si      -1.11254184      -0.60069375       1.99184293       0.00000000
Si      -1.71823662      -2.26310454      -1.81063444       0.00000000
Si       1.17397143      -3.41332515       0.73357149       0.00000000
Si      -2.50031952       1.20128976       2.55308159       0.00000000
Si      -0.88495425       0.39122064      -3.70439616       0.00000000
Si      -3.16254060       1.96185357      -1.01679826       0.00000000
Si       2.97447255       2.40919326      -0.74258529       0.00000000
