10
Lattice="16.28999089631971 0.0 0.0 0.0 16.28999089631971 0.0 0.0 0.0 34.53561885213415" Properties=species:S:1:pos:R:3:initial_magmoms:R:1 pbc="T T T"
Si      -0.87781923       0.77913441       2.05822043       0.00000000
Si      -0.74701053      -2.19962241       0.47621191       0.00000000
Si      -1.46350989       0.63863316      -1.77454470       0.00000000
Si       2.14057116       1.15108398      -0.07632376       0.00000000
Si      -1.03966038      -2.82667338      -1.74187398       0.00000000
Si      -0.46263600       3.04580646       1.86499353       0.00000000
Si       1.41498198       3.38147820       0.32850299       0.00000000
Si      -2.81952207      -1.33773480      -2.09058032       0.00000000
Si       1.00172097      -3.40750310       1.35331352       0.00000000
Si       0.82300338      -2.17399824      -3.03281614       0.00000000
