10
Lattice="16.28999089631971 0.0 0.0 0.0 16.28999089631971 0.0 0.0 0.0 34.53561885213415" Properties=species:S:1:pos:R:3:initial_magmoms:R:1 pbc="T T T"
Si      -1.34669430      -1.35009891       1.38712391       0.00000000
Si       1.36562328       1.36515087       1.38874708       0.00000000
Si      -1.44814842       1.25191908      -1.50198253       0.00000000
Si       1.34250777      -1.47918087      -1.48240428       0.00000000
Si       0.32246055       2.39370147      -2.84899817       0.00000000
Si      -2.69869914       2.71023246       0.01245010       0.00000000
Si       2.71349046      -2.71244790       0.02160204       0.00000000
Si      -2.71410948      -2.72160288       0.00092556       0.00000000
Si       2.73004110       2.71779102       0.02041402       0.00000000
Si      -2.70790299       0.00677664       2.74914040       0.00000000
