10
Lattice="16.28999089631971 0.0 0.0 0.0 16.28999089631971 0.0 0.0 0.0 34.53561885213415" Properties=species:S:1:pos:R:3:initial_magmoms:R:1 pbc="T T T"
Si      -1.32774903       1.40095629       1.38842245       0.00000000
Si       1.40497992      -1.32436071       1.39435912       0.00000000
Si       1.05197562       1.64524113      -1.37856049       0.00000000
Si      -1.00260063      -1.64845026      -1.47505306       0.00000000
Si       2.76415236       0.54599193      -2.48708540       0.00000000
Si      -2.67592572       0.03872133       2.76238137       0.00000000
Si       0.04056210      -2.67700086       2.76269219       0.00000000
Si       0.04592151       2.74592385       2.76296847       0.00000000
Si       2.78159895      -2.73206106       0.00709707       0.00000000
Si       2.75330322       0.04043178       2.76421176       0.00000000
