10
Lattice="16.28999089631971 0.0 0.0 0.0 16.28999089631971 0.0 0.0 0.0 34.53561885213415" Properties=species:S:1:pos:R:3:initial_magmoms:R:1 pbc="T T T"
Si      -1.23263172       1.36886499      -1.42566568       0.00000000
Si       1.64045187       0.89572194       1.47536246       0.00000000
Si      -1.66469139      -0.99285921       1.42348993       0.00000000
Si       1.46992815      -1.34938215      -1.41748073       0.00000000
Si       0.20256615      -1.18289835       3.04400568       0.00000000
Si      -2.54068614       2.68117110       0.10840737       0.00000000
Si      -2.58157404      -0.00087966      -2.78982339       0.00000000
Si      -2.60433117      -2.79915957       0.06682646       0.00000000
Si       2.88336258       2.52561789       0.10339970       0.00000000
Si      -2.93518107       1.29546225       2.13437151       0.00000000
