10
Lattice="16.28999089631971 0.0 0.0 0.0 16.28999089631971 0.0 0.0 0.0 34.53561885213415" Properties=species:S:1:pos:R:3:initial_magmoms:R:1 pbc="T T T"
Si      -1.34817669      -1.36223496       1.37395892       0.00000000
Si       1.37367054       1.34496756       1.37454603       0.00000000
Si       1.32774903      -1.40095629      -1.38842245       0.00000000
Si      -1.35896067       1.47388662      -1.40528274       0.00000000
Si       2.37972465       0.24428484      -2.76698294       0.00000000
Si      -2.70228294       2.69802290       0.04701682       0.00000000
Si      -2.69601129      -2.73287556      -0.00202724       0.00000000
Si       2.73931011       2.69708464      -0.00240368       0.00000000
Si      -2.70692559      -0.00586440       2.73500842       0.00000000
Si       0.00964368       2.70860519       2.73400689       0.00000000
