10
Lattice="16.28999089631971 0.0 0.0 0.0 16.28999089631971 0.0 0.0 0.0 34.53561885213415" Properties=species:S:1:pos:R:3:initial_magmoms:R:1 pbc="T T T"
Si       1.35048987      -1.35278676       1.36091136       0.00000000
Si      -1.36402686       1.36363763       1.35946086       0.00000000
Si      -1.37367054      -1.34496756      -1.37454603       0.00000000
Si       1.36563957       1.35211708      -1.37694971       0.00000000
Si      -0.08827551       2.58199988      -2.74488561       0.00000000
Si       2.70738171      -2.70549207       0.00124328       0.00000000
Si       2.70901071       0.00552231       2.71664237       0.00000000
Si      -0.00563634      -2.70892926       2.71719494       0.00000000
Si      -2.72184723      -2.70720252      -0.00058711       0.00000000
Si       2.70857088       2.72321300       0.00096700       0.00000000
