10
Lattice="16.28999089631971 0.0 0.0 0.0 16.28999089631971 0.0 0.0 0.0 34.53561885213415" Properties=species:S:1:pos:R:3:initial_magmoms:R:1 pbc="T T T"
Si      -1.35659862      -1.35643572      -1.35738872       0.00000000
Si       1.35803214       1.35862122      -1.35759594       0.00000000
Si      -1.35633798       1.36125409       1.35842479       0.00000000
Si       1.35910728      -1.35883035       1.36163661       0.00000000
Si      -2.71384884       0.00026064      -2.71432848       0.00000000
Si       0.00154755      -2.71440270      -2.71463930       0.00000000
Si      -2.71308321       2.71661718      -0.00027629       0.00000000
Si      -2.71489140      -2.71518462       0.00020721       0.00000000
Si       0.00130320       2.71595418      -2.71463930       0.00000000
Si       2.71425609       2.71641030      -0.00051803       0.00000000
