10
Lattice="16.28999089631971 0.0 0.0 0.0 16.28999089631971 0.0 0.0 0.0 34.53561885213415" Properties=species:S:1:pos:R:3:initial_magmoms:R:1 pbc="T T T"
Si      -1.50983865       1.54075707       0.96095413       0.00000000
Si      -1.61994276      -1.84235013       0.37540239       0.00000000
Si       2.06408961      -0.12579138       1.43958354       0.00000000
Si       0.43292304       0.80712063      -2.34887236       0.00000000
Si      -0.40770612       3.01610313      -2.08139384       0.00000000
Si      -0.38356434       3.27521920       1.88378092       0.00000000
Si       1.85855868      -2.14071777       2.59397178       0.00000000
Si       0.73889811       3.80753405      -0.12653858       0.00000000
Si      -2.97360755      -1.13067261       2.26298223       0.00000000
Si      -0.46897281      -3.92913171       0.26402495       0.00000000
