10
Lattice="16.28999089631971 0.0 0.0 0.0 16.28999089631971 0.0 0.0 0.0 34.53561885213415" Properties=species:S:1:pos:R:3:initial_magmoms:R:1 pbc="T T T"
Si      -0.84206268       2.20769478      -0.43124651       0.00000000
Si      -2.15418960      -1.11389391      -0.16670353       0.00000000
Si       1.31585733      -0.62757225      -1.96221135       0.00000000
Si       1.47103587      -0.83201175       1.85625602       0.00000000
Si      -1.42053687       2.23953684       1.89766425       0.00000000
Si      -1.13744925      -3.27240036      -0.41798483       0.00000000
Si       3.52561212      -0.51378660      -1.13815649       0.00000000
Si       0.85263489      -2.96730495      -2.12901849       0.00000000
Si       3.18321261      -1.93126095       0.74773110       0.00000000
Si      -2.26764945       0.39759003       3.21795621       0.00000000
