10
Lattice="16.28999089631971 0.0 0.0 0.0 16.28999089631971 0.0 0.0 0.0 34.53561885213415" Properties=species:S:1:pos:R:3:initial_magmoms:R:1 pbc="T T T"
Si      -0.49021497      -2.23429893      -0.36262420       0.00000000
Si      -0.42165036       1.18052001      -1.97868485       0.00000000
Si      -1.48172211       0.34525026       1.82306727       0.00000000
Si       2.26095426       0.48355236       0.57253181       0.00000000
Si       0.69999759      -0.58723821      -3.05574780       0.00000000
Si       0.82673379      -2.73434885       1.48696644       0.00000000
Si      -0.67287474       2.54708811       2.04364639       0.00000000
Si       1.99475937      -0.88062111       2.59676917       0.00000000
Si       1.67412330       1.87489755       2.37570655       0.00000000
Si      -2.83955877      -2.06629691      -0.40714064       0.00000000
