10
Lattice="16.28999089631971 0.0 0.0 0.0 16.28999089631971 0.0 0.0 0.0 34.53561885213415" Properties=species:S:1:pos:R:3:initial_magmoms:R:1 pbc="T T T"
Si      -2.04362937      -0.53387217      -1.01431169       0.00000000
Si       0.80884737       2.20183785       0.22057912       0.00000000
Si       1.48172211      -0.34525026      -1.82306727       0.00000000
Si       0.08821035      -1.41138515       1.96566492       0.00000000
Si      -0.72606159       2.79121005       1.94218068       0.00000000
Si       0.99150714      -2.57954919      -2.18569147       0.00000000
Si       3.15584541       1.52964729       0.55263928       0.00000000
Si      -1.35783666      -2.41154716      -2.23020790       0.00000000
Si       2.21602644      -0.91895148       2.76854943       0.00000000
Si       3.47648148      -1.22587137       0.77370190       0.00000000
