10
Lattice="16.28999089631971 0.0 0.0 0.0 16.28999089631971 0.0 0.0 0.0 34.53561885213415" Properties=species:S:1:pos:R:3:initial_magmoms:R:1 pbc="T T T"
Si      -0.45787932      -2.07280476      -0.93729722       0.00000000
Si       0.48710358       0.49423860       2.22502756       0.00000000
Si       2.11965480       1.00760166      -0.08910195       0.00000000
Si      -1.84283883       1.48823811      -0.01229469       0.00000000
Si       0.48193965       0.37579401      -3.15320737       0.00000000
Si      -1.53425736      -0.29478384       3.07215223       0.00000000
Si       2.19196611       1.75115871      -2.29005817       0.00000000
Si      -0.70589457       3.54849957      -0.30836871       0.00000000
Si       0.34427286      -3.80501005       0.43124651       0.00000000
Si       0.80257572      -2.37972465      -2.93214475       0.00000000
