10
Lattice="16.28999089631971 0.0 0.0 0.0 16.28999089631971 0.0 0.0 0.0 34.53561885213415" Properties=species:S:1:pos:R:3:initial_magmoms:R:1 pbc="T T T"
Si      -1.34679204      -1.35586557       1.37187642       0.00000000
Si       1.36634004       1.36246302       1.36655793       0.00000000
Si       1.31906646      -1.50185655      -1.27145024       0.00000000
Si      -1.37098269       1.23326703      -1.50400632       0.00000000
Si       0.29577753       2.42663985      -2.73377001       0.00000000
Si      -2.70578529      -2.70457983      -0.00946967       0.00000000
Si      -2.71349046       2.71244790      -0.02160204       0.00000000
Si      -2.70707220       0.00184077       2.72719301       0.00000000
Si       0.00851967      -2.71013472       2.72805640       0.00000000
Si       0.00785178       2.71837746       2.72733115       0.00000000
