10
Lattice="16.28999089631971 0.0 0.0 0.0 16.28999089631971 0.0 0.0 0.0 34.53561885213415" Properties=species:S:1:pos:R:3:initial_magmoms:R:1 pbc="T T T"
Si      -1.35221661       1.35456237      -1.35448773       0.00000000
Si       1.37477826       1.34741106       1.34084615       0.00000000
Si      -1.34912151      -1.35407367       1.36346699       0.00000000
Si       1.36272366      -1.35586557      -1.35279548       0.00000000
Si       2.49425964      -0.11095119       2.75697999       0.00000000
Si       0.05980059       2.69803125       2.67478517       0.00000000
Si      -2.64790692       0.05388732       2.73957403       0.00000000
Si      -2.70969489      -0.00097740      -2.71115120       0.00000000
Si      -2.70967860       2.71497285       0.00448963       0.00000000
Si       0.00470781       2.71386513      -2.71135842       0.00000000
