10
Lattice="16.28999089631971 0.0 0.0 0.0 16.28999089631971 0.0 0.0 0.0 34.53561885213415" Properties=species:S:1:pos:R:3:initial_magmoms:R:1 pbc="T T T"
Si       1.34912151       1.35407367      -1.36346699       0.00000000
Si      -1.36101321      -1.36298430      -1.36101496       0.00000000
Si      -1.29878541       1.40796099       1.37610704       0.00000000
Si       1.40209659      -1.27097838       1.45888896       0.00000000
Si      -2.12516082      -0.43474752       2.64691491       0.00000000
Si       0.58440375       2.31891408       2.61742148       0.00000000
Si       2.10818664       0.46463967       2.96585153       0.00000000
Si      -0.37981764      -2.24064063       2.93701428       0.00000000
Si       2.72389977       2.70148473      -0.02262084       0.00000000
Si      -0.00309510       2.70863604      -2.71795472       0.00000000
