10
Lattice="16.28999089631971 0.0 0.0 0.0 16.28999089631971 0.0 0.0 0.0 34.53561885213415" Properties=species:S:1:pos:R:3:initial_magmoms:R:1 pbc="T T T"
Si      -0.70609005      -1.73561805      -1.50696257       0.00000000
Si      -1.52378289       1.85427441      -0.34843005       0.00000000
Si       1.73519451       0.77848281      -1.57233853       0.00000000
Si      -0.71944785      -0.07582995       2.48894891       0.00000000
Si       0.12041568       2.29817691       2.69971991       0.00000000
Si       3.19795506       0.85732641       1.28659066       0.00000000
Si       2.48218875       2.66501142      -0.32190668       0.00000000
Si      -2.10818664      -0.46463967      -2.96585153       0.00000000
Si      -2.48800428      -2.70528030      -0.02883726       0.00000000
Si       2.39407614      -1.32126561       2.48856901       0.00000000
