10
Lattice="16.28999089631971 0.0 0.0 0.0 16.28999089631971 0.0 0.0 0.0 34.53561885213415" Properties=species:S:1:pos:R:3:initial_magmoms:R:1 pbc="T T T"
Si      -1.53705924       1.07958717      -1.67546195       0.00000000
Si       0.18287154      -2.46749517       1.14136831       0.00000000
Si       1.61482770      -1.56828717      -1.96822055       0.00000000
Si       2.46715308       1.34742735      -1.10866306       0.00000000
Si      -2.97494496      -0.99903312      -0.10681873       0.00000000
Si      -2.31708960       1.54388475       1.91914541       0.00000000
Si      -2.24518554       2.80942227      -0.13299674       0.00000000
Si       3.25902627      -1.12438467       1.07992941       0.00000000
Si      -1.78800669      -3.15180549       0.08861845       0.00000000
Si      -0.70931547      -1.93991094       3.32412424       0.00000000
