10
Lattice="16.28999089631971 0.0 0.0 0.0 16.28999089631971 0.0 0.0 0.0 34.53561885213415" Properties=species:S:1:pos:R:3:initial_magmoms:R:1 pbc="T T T"
Si      -1.97087823      -0.68431032      -1.05274986       0.00000000
Si      -0.89218701       0.52758423       2.18275594       0.00000000
Si       2.23629120      -1.03089636      -0.27220990       0.00000000
Si      -0.18287154       2.46749517      -1.14136831       0.00000000
Si       3.07615473       1.34311050      -0.06143890       0.00000000
Si      -0.32135283      -1.53456687       3.17068240       0.00000000
Si       1.43195616       0.89920800      -3.10958886       0.00000000
Si      -3.15781650       1.46846205      -1.24818703       0.00000000
Si      -2.59320510      -2.61671157       0.38275848       0.00000000
Si      -0.67315167      -3.30481746       1.62738834       0.00000000
