10
Lattice="16.28999089631971 0.0 0.0 0.0 16.28999089631971 0.0 0.0 0.0 34.53561885213415" Properties=species:S:1:pos:R:3:initial_magmoms:R:1 pbc="T T T"
Si      -1.46303748      -1.04749587      -1.65992091       0.00000000
Si      -1.57486833       0.43609959       1.90056524       0.00000000
Si       1.11019608       1.69015266      -1.67390785       0.00000000
Si       1.29826413      -2.40955164       0.27884074       0.00000000
Si      -3.41407449      -0.94755672       1.25450706       0.00000000
Si      -2.70594819      -2.67739182      -0.28795815       0.00000000
Si       2.81922885       2.66514174      -0.34853366       0.00000000
Si      -0.13550022      -2.23125759      -3.19851813       0.00000000
Si       1.96335225       2.94500394       1.99495114       0.00000000
Si       2.56029930       0.49347297      -3.18349512       0.00000000
