10
Lattice="16.28999089631971 0.0 0.0 0.0 16.28999089631971 0.0 0.0 0.0 34.53561885213415" Properties=species:S:1:pos:R:3:initial_magmoms:R:1 pbc="T T T"
Si       0.28434195      -2.30975910       0.23826137       0.00000000
Si      -2.16733563       0.07123617      -0.94175232       0.00000000
Si       0.33176214       0.99768105       2.13185041       0.00000000
Si       1.64626740       0.83849517      -1.52688963       0.00000000
Si      -1.67360202       1.93326462      -2.27976655       0.00000000
Si       0.51168519       2.90186802      -1.80027375       0.00000000
Si       1.94354361      -2.57766444      -1.41509777       0.00000000
Si       1.87220970      -0.50642352       3.16149592       0.00000000
Si       0.95894343      -2.58233967       2.48452834       0.00000000
Si       1.96677315      -0.88063740      -3.12326497       0.00000000
