10
Lattice="16.28999089631971 0.0 0.0 0.0 16.28999089631971 0.0 0.0 0.0 34.53561885213415" Properties=species:S:1:pos:R:3:initial_magmoms:R:1 pbc="T T T"
Si      -2.06835759      -0.23973993      -1.15956859       0.00000000
Si      -0.26836146       0.57915837       2.29637819       0.00000000
Si       1.15370667      -1.88323803      -0.99593873       0.00000000
Si       1.92873600       1.55294199      -0.93847143       0.00000000
Si      -1.47281148       2.37400686       1.20011343       0.00000000
Si       2.83406904      -0.46504692      -1.75834748       0.00000000
Si       0.20631285       2.58675426      -2.30204203       0.00000000
Si      -1.19353572      -1.11449664      -3.21126178       0.00000000
Si      -3.69123255      -1.15067673       0.72901279       0.00000000
Si       1.51345503      -3.61488132       0.44471541       0.00000000
