10
Lattice="16.28999089631971 0.0 0.0 0.0 16.28999089631971 0.0 0.0 0.0 34.53561885213415" Properties=species:S:1:pos:R:3:initial_magmoms:R:1 pbc="T T T"
Si       1.35773892      -1.35562122      -1.36142939       0.00000000
Si      -1.35910728       1.35883035      -1.36163661       0.00000000
Si      -1.34485353      -1.36300059       1.38643319       0.00000000
Si       1.35619137       1.35625653       1.38857440       0.00000000
Si      -2.71591767      -2.71078632      -0.00117421       0.00000000
Si      -0.00034209      -2.71295289      -2.71854183       0.00000000
Si       2.71904535      -2.71275741      -0.00234842       0.00000000
Si       2.71332756       2.71907663       0.00024175       0.00000000
Si       2.71454931       0.00182448      -2.71937068       0.00000000
Si      -2.71570590       0.00239463      -2.71902533       0.00000000
