10
Lattice="16.28999089631971 0.0 0.0 0.0 16.28999089631971 0.0 0.0 0.0 34.53561885213415" Properties=species:S:1:pos:R:3:initial_magmoms:R:1 pbc="T T T"
Si       0.80418843       1.70388513      -1.40245773       0.00000000
Si      -0.77558319      -1.52506980      -1.68596078       0.00000000
Si      -1.33672482       1.20472695       1.61626787       0.00000000
Si       1.72242315      -1.03381227       1.36357060       0.00000000
Si      -0.20631285      -2.58675426       2.30204203       0.00000000
Si       1.27351962      -1.61720604      -2.89964671       0.00000000
Si       2.33372169       0.53369298      -2.81579419       0.00000000
Si      -3.54647961       1.09094130       0.79221300       0.00000000
Si      -2.27467044      -2.82649419       1.14247345       0.00000000
Si       1.32282945       3.57672918       0.00217575       0.00000000
