10
Lattice="16.28999089631971 0.0 0.0 0.0 16.28999089631971 0.0 0.0 0.0 34.53561885213415" Properties=species:S:1:pos:R:3:initial_magmoms:R:1 pbc="T T T"
Si       1.52492319       0.52101936      -1.67007439       0.00000000
Si      -2.02763259      -1.08509319      -0.45756267       0.00000000
Si      -0.69532236       2.18923332       0.63169136       0.00000000
Si       1.71600489      -0.92338236       1.39848613       0.00000000
Si       1.43249373       2.68166699       1.43457587       0.00000000
Si      -3.20665392      -0.43924356       1.54926873       0.00000000
Si       2.69294877       2.37474710      -0.56027166       0.00000000
Si       0.20797443       1.02106927      -3.51966503       0.00000000
Si       2.23464591       0.94946169       2.80311961       0.00000000
Si      -2.64844449       1.83324143       2.03784440       0.00000000
