10
Lattice="16.28999089631971 0.0 0.0 0.0 16.28999089631971 0.0 0.0 0.0 34.53561885213415" Properties=species:S:1:pos:R:3:initial_magmoms:R:1 pbc="T T T"
Si      -1.10583036      -2.09559447      -0.44074381       0.00000000
Si      -1.55888784       1.77898922       0.52798084       0.00000000
Si       0.55534239      -0.48044097       2.33968588       0.00000000
Si       1.55372391       0.27640776      -2.05483593       0.00000000
Si      -0.32480631       3.78663398       0.58606978       0.00000000
Si       0.23089446      -3.30032142      -2.05701168       0.00000000
Si       1.03508289      -1.59643629      -3.45946941       0.00000000
Si       0.75157173       2.00861306      -3.42337967       0.00000000
Si      -1.44822987      -3.51306882       1.44514378       0.00000000
Si      -1.36071999      -1.20721932       3.69700695       0.00000000
