10
Lattice="16.28999089631971 0.0 0.0 0.0 16.28999089631971 0.0 0.0 0.0 34.53561885213415" Properties=species:S:1:pos:R:3:initial_magmoms:R:1 pbc="T T T"
Si       1.43792156       1.32704856      -1.40857541       0.00000000
Si       1.52157071      -1.20135492       1.45378114       0.00000000
Si      -1.18510143       1.52370144       1.46532986       0.00000000
Si      -1.89868488      -0.91974969      -1.42194070       0.00000000
Si      -2.65566489      -2.53843812       0.11481028       0.00000000
Si       0.17486012      -2.54435139       2.84101556       0.00000000
Si      -2.54404581       0.17031195       2.84498716       0.00000000
Si      -2.64194871       2.77316073       0.02830886       0.00000000
Si       2.87561180      -2.59139691      -0.06802485       0.00000000
Si      -3.55848927       0.86429853      -1.26359480       0.00000000
