10
Lattice="16.28999089631971 0.0 0.0 0.0 16.28999089631971 0.0 0.0 0.0 34.53561885213415" Properties=species:S:1:pos:R:3:initial_magmoms:R:1 pbc="T T T"
Si       0.34912728      -2.05534907      -1.09788794       0.00000000
Si       1.08895392       1.45678212      -1.50931099       0.00000000
Si      -2.31756201       0.23874624      -0.44633859       0.00000000
Si       1.03281858      -0.06380793       2.15592175       0.00000000
Si       3.25673331       0.74722230      -0.93211687       0.00000000
Si      -0.75660534       1.30953681       3.18194102       0.00000000
Si      -1.03223214      -1.41870750      -3.06597035       0.00000000
Si       3.02614184       1.12941828       1.45049680       0.00000000
Si      -3.04697934      -1.95853760       0.05366838       0.00000000
Si      -2.40824844       0.65195838      -2.73401379       0.00000000
