10
Lattice="16.28999089631971 0.0 0.0 0.0 16.28999089631971 0.0 0.0 0.0 34.53561885213415" Properties=species:S:1:pos:R:3:initial_magmoms:R:1 pbc="T T T"
Si      -1.35739357       1.35775521      -1.35756140       0.00000000
Si       1.35780408      -1.35757602      -1.35745779       0.00000000
Si       1.35747828       1.35658233       1.35897736       0.00000000
Si      -1.35799467      -1.35840681       1.35797583       0.00000000
Si       2.71427238      -0.00249237      -2.71491559       0.00000000
Si      -2.71450542       2.71482624      -0.00031082       0.00000000
Si      -0.00004887       2.71489140      -2.71457023       0.00000000
Si      -2.71494746       0.00387702       2.71460477       0.00000000
Si      -2.71395940      -2.71567332      -0.00034536       0.00000000
Si       2.71521720       2.71531494       0.00013814       0.00000000
