10
Lattice="16.28999089631971 0.0 0.0 0.0 16.28999089631971 0.0 0.0 0.0 34.53561885213415" Properties=species:S:1:pos:R:3:initial_magmoms:R:1 pbc="T T T"
Si      -1.35694071       1.35762489       1.35635265       0.00000000
Si      -1.35646830      -1.35775521      -1.35704337       0.00000000
Si       1.35651717       1.35707103      -1.35801036       0.00000000
Si       1.35880843      -1.35840681       1.35645626       0.00000000
Si      -2.70961344      -0.00149868      -2.71408673       0.00000000
Si       0.00006516       2.71476108       2.71329241       0.00000000
Si      -2.71427238       2.71451673      -0.00048350       0.00000000
Si      -2.71419093       0.00234576       2.71488105       0.00000000
Si      -2.71458189      -2.71459981      -0.00051803       0.00000000
Si       0.00053757      -2.71575966       2.71353416       0.00000000
