10
Lattice="16.28999089631971 0.0 0.0 0.0 16.28999089631971 0.0 0.0 0.0 34.53561885213415" Properties=species:S:1:pos:R:3:initial_magmoms:R:1 pbc="T T T"
Si      -1.34716671      -1.36536264      -1.37472561       0.00000000
Si       1.36521603       1.35589815      -1.37859360       0.00000000
Si       1.45144505      -1.26177453       1.43084602       0.00000000
Si      -1.57525929       1.24201476       1.37465654       0.00000000
Si      -2.69474067       2.70037701      -0.04147730       0.00000000
Si       2.71103949       2.69179218       0.00977359       0.00000000
Si      -2.70989037      -2.72020031      -0.00037989       0.00000000
Si      -2.70679527      -0.00289962      -2.73511893       0.00000000
Si       2.73640627      -2.70753809       0.00210667       0.00000000
Si       0.00746082       2.70951570      -2.73670757       0.00000000
