10
Lattice="16.28999089631971 0.0 0.0 0.0 16.28999089631971 0.0 0.0 0.0 34.53561885213415" Properties=species:S:1:pos:R:3:initial_magmoms:R:1 pbc="T T T"
Si      -0.04191417       2.13972408       0.98803007       0.00000000
Si       0.88511715      -0.11420919      -2.18810896       0.00000000
Si      -2.36669265       0.13206303      -0.32808856       0.00000000
Si       2.08754721      -0.67518792       1.10779967       0.00000000
Si      -0.87988806      -2.59152723       2.04917209       0.00000000
Si       3.16686464       1.29197619       0.27987681       0.00000000
Si       2.72304033       1.36954917      -2.00241084       0.00000000
Si       0.96567120      -2.44428192      -2.64207993       0.00000000
Si       2.06262351       2.85125499       1.63087644       0.00000000
Si      -3.34805112       0.99051345       1.70778731       0.00000000
