10
Lattice="16.28999089631971 0.0 0.0 0.0 16.28999089631971 0.0 0.0 0.0 34.53561885213415" Properties=species:S:1:pos:R:3:initial_magmoms:R:1 pbc="T T T"
Si       1.36121710       1.34366436      -1.38228892       0.00000000
Si       1.09898856      -1.55905074       1.39769181       0.00000000
Si      -1.35519768      -1.37137365      -1.38529352       0.00000000
Si      -1.37042883       1.40820534       1.45533179       0.00000000
Si      -0.83465073      -2.30954733       2.61897558       0.00000000
Si       2.70671286       2.69728191       0.01647350       0.00000000
Si      -2.72626182       2.69845479      -0.01032616       0.00000000
Si      -2.70112635      -2.73771369      -0.04759011       0.00000000
Si      -0.00068418       2.70053991      -2.74171524       0.00000000
Si       2.70465381      -2.74629852       0.00366078       0.00000000
