10
Lattice="16.28999089631971 0.0 0.0 0.0 16.28999089631971 0.0 0.0 0.0 34.53561885213415" Properties=species:S:1:pos:R:3:initial_magmoms:R:1 pbc="T T T"
Si      -0.32050575       1.71913257       1.59637534       0.00000000
Si      -1.44181161       0.23745933      -1.87231509       0.00000000
Si      -0.02322954      -1.69702704       1.70816720       0.00000000
Si       1.88962371      -0.24532740      -1.53977143       0.00000000
Si       2.08130814      -0.98549613       2.35101357       0.00000000
Si       1.77007140       1.38148974       2.66041835       0.00000000
Si      -2.76268626      -2.11545198      -1.49608384       0.00000000
Si      -1.96677315       0.88063740       3.12326497       0.00000000
Si      -3.13440777       1.85124447      -1.29691682       0.00000000
Si       0.01868463      -3.83675112       0.72013713       0.00000000
