10
Lattice="16.28999089631971 0.0 0.0 0.0 16.28999089631971 0.0 0.0 0.0 34.53561885213415" Properties=species:S:1:pos:R:3:initial_magmoms:R:1 pbc="T T T"
Si       1.09349883      -1.82843847       1.04663705       0.00000000
Si      -0.67502502      -1.81943010      -1.36764581       0.00000000
Si      -1.77192846       1.64248812       0.00165771       0.00000000
Si       1.87481610       0.80767449      -1.36108404       0.00000000
Si      -0.30524202      -0.41528097       2.64132014       0.00000000
Si      -2.03085801      -0.52918065      -2.83330375       0.00000000
Si       0.69836859       2.17377018      -2.85816941       0.00000000
Si      -3.48096123       0.66749904      -1.32371647       0.00000000
Si      -0.73479303       3.39560163      -1.50005544       0.00000000
Si       2.88549561       2.60749143      -0.10657698       0.00000000
