10
Lattice="16.28999089631971 0.0 0.0 0.0 16.28999089631971 0.0 0.0 0.0 34.53561885213415" Properties=species:S:1:pos:R:3:initial_magmoms:R:1 pbc="T T T"
Si       1.38777768      -1.80198351      -0.56123866       0.00000000
Si       0.61626699       1.37862270       1.79191612       0.00000000
Si      -2.20763546      -0.65741553       0.52342213       0.00000000
Si      -0.64503513       1.75387914      -1.44821745       0.00000000
Si      -2.79570283       1.45733598      -0.37305396       0.00000000
Si       1.60572159       3.11238369       0.63372896       0.00000000
Si      -0.66222108       0.76056381      -3.56987984       0.00000000
Si       2.50031952      -1.20128976      -2.55308159       0.00000000
Si      -2.32004949      -1.08600543       2.87643877       0.00000000
Si       0.03176550      -3.77835147      -0.87727428       0.00000000
