10
Lattice="16.28999089631971 0.0 0.0 0.0 16.28999089631971 0.0 0.0 0.0 34.53561885213415" Properties=species:S:1:pos:R:3:initial_magmoms:R:1 pbc="T T T"
Si      -1.34961021      -1.44511848      -1.35944847       0.00000000
Si       1.44814842      -1.25191908       1.50198253       0.00000000
Si      -1.25055072       1.45831338       1.51443263       0.00000000
Si       1.77060897       1.14178239      -1.34701564       0.00000000
Si      -2.56287149       0.28105137      -2.64669531       0.00000000
Si      -2.59025498       2.83242375       0.12577189       0.00000000
Si       0.10145412      -2.60201799       2.88910644       0.00000000
Si      -2.61659102       0.11132586       2.89062601       0.00000000
Si       2.79065619      -2.73109995       0.01957825       0.00000000
Si       0.16273710      -2.78883171      -2.74740123       0.00000000
