10
Lattice="16.28999089631971 0.0 0.0 0.0 16.28999089631971 0.0 0.0 0.0 34.53561885213415" Properties=species:S:1:pos:R:3:initial_magmoms:R:1 pbc="T T T"
Si      -1.36604030      -1.34698752       1.37619338       0.00000000
Si       1.34783460       1.37064060       1.37598616       0.00000000
Si      -1.33970426       1.37411037      -1.38866074       0.00000000
Si       1.25055072      -1.45831338      -1.51443263       0.00000000
Si       2.69869914      -2.71023246      -0.01245010       0.00000000
Si      -2.72208248      -2.70677898       0.00002417       0.00000000
Si       2.69601129       2.73287556       0.00202724       0.00000000
Si      -0.00920385      -2.70345582       2.73669031       0.00000000
Si       2.70562239       0.01124010       2.73575784       0.00000000
Si      -2.71746794       2.73662226      -0.00053185       0.00000000
