10
Lattice="16.28999089631971 0.0 0.0 0.0 16.28999089631971 0.0 0.0 0.0 34.53561885213415" Properties=species:S:1:pos:R:3:initial_magmoms:R:1 pbc="T T T"
Si       1.35653346       1.35664749       1.35714697       0.00000000
Si      -1.35854690      -1.35757602       1.35638719       0.00000000
Si      -1.35716877       1.35782037      -1.35780315       0.00000000
Si       1.35759231      -1.35726651      -1.35821758       0.00000000
Si      -2.71425037      -0.00048870      -2.71446662       0.00000000
Si       2.71498914      -2.71451673      -0.00006907       0.00000000
Si      -2.71278877      -0.00009774       2.71681505       0.00000000
Si      -0.00027693      -2.71494027      -2.71477744       0.00000000
Si      -2.71473348      -2.71500543      -0.00051803       0.00000000
Si      -0.00198738       2.71552671      -2.71443209       0.00000000
