10
Lattice="16.28999089631971 0.0 0.0 0.0 16.28999089631971 0.0 0.0 0.0 34.53561885213415" Properties=species:S:1:pos:R:3:initial_magmoms:R:1 pbc="T T T"
Si       1.23263172      -1.36886499       1.42566568       0.00000000
Si       1.36422234       1.34524449      -1.36588449       0.00000000
Si      -1.34894232      -1.36974465      -1.36415771       0.00000000
Si      -1.30805442       1.31230611       1.53407305       0.00000000
Si      -0.43205967      -2.36172420       2.84915561       0.00000000
Si      -2.71768513       2.69654886       0.03229082       0.00000000
Si       2.70255987      -2.71824714       0.00818495       0.00000000
Si       0.00614133       2.69967654      -2.72613967       0.00000000
Si       2.73528648       2.69303022       0.02172292       0.00000000
Si      -2.70893903      -0.01454697      -2.72689945       0.00000000
