10
Lattice="16.28999089631971 0.0 0.0 0.0 16.28999089631971 0.0 0.0 0.0 34.53561885213415" Properties=species:S:1:pos:R:3:initial_magmoms:R:1 pbc="T T T"
Si       1.35580041      -1.36047564      -1.36035879       0.00000000
Si      -1.35999671       1.35519768      -1.36274175       0.00000000
Si       1.34894232       1.36974465       1.36415771       0.00000000
Si      -1.37080187      -1.37728692       1.38363581       0.00000000
Si       2.58157404       0.00087966       2.78982339       0.00000000
Si      -2.71423858       2.71267596      -0.00231389       0.00000000
Si       2.71316466       2.71498914      -0.00172678       0.00000000
Si      -2.71662533      -2.71318095      -0.00473138       0.00000000
Si      -0.00144981       2.71277370      -2.71912893       0.00000000
Si       2.71353933      -0.00174303      -2.71919801       0.00000000
