10
Lattice="16.28999089631971 0.0 0.0 0.0 16.28999089631971 0.0 0.0 0.0 34.53561885213415" Properties=species:S:1:pos:R:3:initial_magmoms:R:1 pbc="T T T"
Si       1.96318446       1.20793608      -0.21059832       0.00000000
Si       0.43587805      -2.26504305       0.58102758       0.00000000
Si      -0.65967562      -0.27844497      -2.35712638       0.00000000
Si      -1.37267263       0.97373475       1.80258763       0.00000000
Si      -1.36056916       2.67980274       0.11479646       0.00000000
Si      -2.59331491      -1.02894156      -1.13584260       0.00000000
Si      -1.87754860      -2.83662657       0.47265474       0.00000000
Si       3.23367414      -1.08038538      -0.92147990       0.00000000
Si      -3.43153315       0.77178762       0.44692569       0.00000000
Si       1.55189454      -2.11783032       2.71816194       0.00000000
