10
Lattice="16.28999089631971 0.0 0.0 0.0 16.28999089631971 0.0 0.0 0.0 34.53561885213415" Properties=species:S:1:pos:R:3:initial_magmoms:R:1 pbc="T T T"
Si       1.40118435      -1.41661098       1.34789142       0.00000000
Si      -1.42917383       0.35170110       1.98887287       0.00000000
Si      -0.16886214      -1.36415718      -2.10850432       0.00000000
Si       0.84753612       2.28226158      -0.65324160       0.00000000
Si       1.90752642       1.34866539      -2.64318507       0.00000000
Si      -2.69455238       2.17937394       1.05126483       0.00000000
Si      -1.36339318       3.33259191      -0.87554750       0.00000000
Si      -2.13204660      -2.57209326      -1.89790599       0.00000000
Si      -3.50471924      -1.59835851      -0.09531836       0.00000000
Si       3.69864450      -0.03406239      -1.22504816       0.00000000
