10
Lattice="16.28999089631971 0.0 0.0 0.0 16.28999089631971 0.0 0.0 0.0 34.53561885213415" Properties=species:S:1:pos:R:3:initial_magmoms:R:1 pbc="T T T"
Si      -1.37641378      -0.02704140       1.86955224       0.00000000
Si      -1.14840753       0.49710564      -1.98372706       0.00000000
Si       0.53559891      -2.29490262       0.18873726       0.00000000
Si       1.28635614       1.91024685       0.57032153       0.00000000
Si       1.39199679      -1.95126507       2.36810871       0.00000000
Si      -1.51205735      -3.43995930      -0.00103607       0.00000000
Si      -2.43862019      -2.23834374       1.85950237       0.00000000
Si      -0.05041755       3.82251366       0.18928983       0.00000000
Si       2.89558008       2.24710776      -1.15065839       0.00000000
Si      -2.74259159       2.22048990      -1.58149048       0.00000000
