10
Lattice="16.28999089631971 0.0 0.0 0.0 16.28999089631971 0.0 0.0 0.0 34.53561885213415" Properties=species:S:1:pos:R:3:initial_magmoms:R:1 pbc="T T T"
Si      -1.24930683       1.89545553       0.60848341       0.00000000
Si      -1.09117980       0.04300560      -2.10097555       0.00000000
Si       0.58806737      -2.11475151       0.89647610       0.00000000
Si       2.15066770       0.29654316      -1.07516349       0.00000000
Si       2.79570283      -1.45733598       0.37305396       0.00000000
Si      -1.40241654       2.40999147      -1.79157076       0.00000000
Si      -0.28949611      -0.25712136       3.29210971       0.00000000
Si      -1.00135674      -3.49539417      -0.18538731       0.00000000
Si       0.01306132      -1.51627320      -3.45197518       0.00000000
Si       2.13348175      -0.69677217      -3.19682588       0.00000000
