10
Lattice="16.28999089631971 0.0 0.0 0.0 16.28999089631971 0.0 0.0 0.0 34.53561885213415" Properties=species:S:1:pos:R:3:initial_magmoms:R:1 pbc="T T T"
Si       1.37641378       0.02704140      -1.86955224       0.00000000
Si      -0.89057497       2.09010474       0.77567043       0.00000000
Si      -1.06220641      -2.21130234      -0.01004987       0.00000000
Si       0.58346707      -1.89969093       1.75458310       0.00000000
Si      -1.06600198      -0.52509186       3.13963486       0.00000000
Si       2.76841057      -1.92422367       0.49855647       0.00000000
Si       1.91201269      -2.26786122      -1.68081497       0.00000000
Si      -2.77397590       1.03902507       1.75972891       0.00000000
Si       2.66276992       1.93728825      -1.29923071       0.00000000
Si      -0.95848798       3.25993851      -1.28679788       0.00000000
