10
Lattice="16.28999089631971 0.0 0.0 0.0 16.28999089631971 0.0 0.0 0.0 34.53561885213415" Properties=species:S:1:pos:R:3:initial_magmoms:R:1 pbc="T T T"
Si      -2.04417038       1.12663269      -0.29793895       0.00000000
Si       0.47125227      -0.41054058       2.30473581       0.00000000
Si       1.41778109       1.71964638      -0.88501026       0.00000000
Si      -0.26105069      -1.82674431      -1.53807918       0.00000000
Si       2.69695986       0.16239501       1.82196213       0.00000000
Si       1.07010851      -0.67352634      -3.46489150       0.00000000
Si       0.70847865       1.88187686      -3.09556739       0.00000000
Si      -3.66592133      -0.28914750       0.57322252       0.00000000
Si       1.00432786      -3.65441715      -0.60047114       0.00000000
Si       0.86343565       3.92920406      -0.13216789       0.00000000
