10
Lattice="16.28999089631971 0.0 0.0 0.0 16.28999089631971 0.0 0.0 0.0 34.53561885213415" Properties=species:S:1:pos:R:3:initial_magmoms:R:1 pbc="T T T"
Si       1.12627431       1.73446213       0.92282679       0.00000000
Si      -2.22570759      -0.57293559       0.48277369       0.00000000
Si       1.50983865      -1.54075707      -0.96095413       0.00000000
Si      -2.69695986      -0.16239501      -1.82196213       0.00000000
Si      -1.46376890      -2.67142968       1.30202809       0.00000000
Si       2.24873676       2.26677698      -1.08749271       0.00000000
Si      -1.27917877       1.55725137      -2.70697239       0.00000000
Si      -0.11010411      -3.38310720      -0.58555174       0.00000000
Si       1.10213253       1.47534606      -3.04234797       0.00000000
Si       2.28263625       0.89753013       2.78916721       0.00000000
