10
Lattice="16.28999089631971 0.0 0.0 0.0 16.28999089631971 0.0 0.0 0.0 34.32429715621058" Properties=species:S:1:pos:R:3:initial_magmoms:R:1 pbc="T T T"
Si      -1.38131937       1.25333631       1.49584684       0.00000000
Si      -1.86858585      -0.97562765      -1.14621901       0.00000000
Si       1.63095317       1.14178239      -1.36738263       0.00000000
Si       1.29611222      -1.47123854       1.47004869       0.00000000
Si       3.35236634      -0.99863076      -1.26334563       0.00000000
Si      -3.54976272       0.69199920      -0.98942725       0.00000000
Si      -2.73757590       2.57098554       0.14985310       0.00000000
Si       2.77162784       2.64989430       0.11807908       0.00000000
Si      -0.04854257       2.60618823       2.85898558       0.00000000
Si      -2.76378651      -2.75487425       0.15530380       0.00000000
