10
Lattice="16.28999089631971 0.0 0.0 0.0 16.28999089631971 0.0 0.0 0.0 34.32429715621058" Properties=species:S:1:pos:R:3:initial_magmoms:R:1 pbc="T T T"
Si      -0.54369504       1.64639772      -1.53309559       0.00000000
Si      -1.37728692      -1.91786764       0.08697782       0.00000000
Si      -0.31120416       1.19057094       2.02270042       0.00000000
Si       1.39535253      -2.01436343      -0.57984068       0.00000000
Si      -1.25959167      -0.70786403       3.09956956       0.00000000
Si      -2.76209982      -1.75870750      -1.86315822       0.00000000
Si      -2.92315905       2.08611369      -1.42620967       0.00000000
Si      -3.08307798      -1.55605827       1.73996824       0.00000000
Si       0.40061997       1.54605132      -3.63775969       0.00000000
Si       1.29461517      -2.03038628      -3.19473574       0.00000000
