10
Lattice="16.28999089631971 0.0 0.0 0.0 16.28999089631971 0.0 0.0 0.0 34.32429715621058" Properties=species:S:1:pos:R:3:initial_magmoms:R:1 pbc="T T T"
Si       1.35690813      -1.36049193       1.35478077       0.00000000
Si       1.35625653       1.35762489      -1.35862509       0.00000000
Si      -1.35843939      -1.35769005      -1.35848779       0.00000000
Si      -1.36047564       1.36062225       1.36075320       0.00000000
Si      -0.00799839      -2.71019825       2.71477883       0.00000000
Si       2.71265967      -2.71492887      -0.00113270       0.00000000
Si       2.71318095       2.71479366      -0.00113270       0.00000000
Si       2.71344159       0.00032580      -2.71525937       0.00000000
Si      -0.00158013      -2.71420070      -2.71522504       0.00000000
Si       2.72622924       0.00255753       2.70317721       0.00000000
