10
Lattice="16.28999089631971 0.0 0.0 0.0 16.28999089631971 0.0 0.0 0.0 34.32429715621058" Properties=species:S:1:pos:R:3:initial_magmoms:R:1 pbc="T T T"
Si      -0.12292434      -1.40639715       1.84791822       0.00000000
Si       1.44075276      -0.90227052      -1.60565719       0.00000000
Si       0.51890166       2.27929680       0.25451481       0.00000000
Si      -2.27853117      -0.07120359      -0.72376253       0.00000000
Si      -1.85763015      -0.16257420       2.71920666       0.00000000
Si      -1.87659171      -1.66436559      -2.42264457       0.00000000
Si      -0.85985136       3.12590439      -1.52242073       0.00000000
Si       0.07799652      -0.88280397      -3.49009649       0.00000000
Si       2.08707480      -1.48393755       2.80371313       0.00000000
Si      -1.02978864      -3.50469576       1.05763516       0.00000000
