10
Lattice="16.28999089631971 0.0 0.0 0.0 16.28999089631971 0.0 0.0 0.0 34.32429715621058" Properties=species:S:1:pos:R:3:initial_magmoms:R:1 pbc="T T T"
Si      -0.64527948      -1.01739195       2.08310843       0.00000000
Si       1.07325036       1.25768574      -1.80298769       0.00000000
Si      -1.59211944      -1.38085443      -1.68391664       0.00000000
Si      -0.41884848       2.22179310       1.65858529       0.00000000
Si       2.57864184       0.13918176       1.30315699       0.00000000
Si       1.96501383       2.38006674       1.50573911       0.00000000
Si       2.88735363       2.18017215      -0.65199039       0.00000000
Si       2.30228199      -2.91240765      -0.53048231       0.00000000
Si       2.41044759      -0.13540248      -3.20681790       0.00000000
Si      -0.29729250       2.58194871      -3.20798493       0.00000000
