10
Lattice="16.28999089631971 0.0 0.0 0.0 16.28999089631971 0.0 0.0 0.0 34.32429715621058" Properties=species:S:1:pos:R:3:initial_magmoms:R:1 pbc="T T T"
Si      -1.35479043       1.35583299       1.35526131       0.00000000
Si       1.35915615       1.35590440      -1.35793860       0.00000000
Si      -1.35632169      -1.35927018      -1.35766401       0.00000000
Si       1.35861858      -1.35941679       1.36006671       0.00000000
Si      -2.71365336      -0.01492164       2.69655262       0.00000000
Si      -2.71256193       2.71043350       0.00024027       0.00000000
Si      -2.71345788      -0.00198738      -2.71450423       0.00000000
Si       0.00114030       2.71369964      -2.71443558       0.00000000
Si       2.71538010       2.71297148      -0.00034324       0.00000000
Si      -2.71296918      -2.71590138       0.00068649       0.00000000
