10
Lattice="16.28999089631971 0.0 0.0 0.0 16.28999089631971 0.0 0.0 0.0 34.32429715621058" Properties=species:S:1:pos:R:3:initial_magmoms:R:1 pbc="T T T"
Si       0.91321740       1.77789060       1.21710593       0.00000000
Si      -1.17722943       1.50918705      -1.35831617       0.00000000
Si       1.53653796      -1.19850417      -1.32951807       0.00000000
Si      -1.80990045      -1.02434778       1.51586478       0.00000000
Si       0.57125772       0.67189734       3.30673599       0.00000000
Si      -3.29569506       0.95666283       1.25592673       0.00000000
Si      -2.53377918       0.16827570      -2.69758235       0.00000000
Si       0.17870130      -2.55225204      -2.69696451       0.00000000
Si      -2.48512095       2.85237900       0.00089243       0.00000000
Si      -2.65355955      -2.73083931       0.08086809       0.00000000
