10
Lattice="16.28999089631971 0.0 0.0 0.0 16.28999089631971 0.0 0.0 0.0 34.32429715621058" Properties=species:S:1:pos:R:3:initial_magmoms:R:1 pbc="T T T"
Si      -1.42052058      -1.70870697       0.69331687       0.00000000
Si       2.23260966      -0.76387068      -0.13273213       0.00000000
Si      -0.89440245       1.06056045      -1.97893413       0.00000000
Si       0.09953190       1.63407338       1.84901660       0.00000000
Si       2.81054628       0.68921361      -1.86593848       0.00000000
Si      -1.55118267      -1.01597472      -3.13624711       0.00000000
Si       2.37517974       2.22334947       1.67423718       0.00000000
Si       1.10892546       1.94531175      -2.95443120       0.00000000
Si      -3.59464914      -0.88834257       0.20663238       0.00000000
Si       2.28947805       2.86719380      -0.65930147       0.00000000
