10
Lattice="16.28999089631971 0.0 0.0 0.0 16.28999089631971 0.0 0.0 0.0 34.32429715621058" Properties=species:S:1:pos:R:3:initial_magmoms:R:1 pbc="T T T"
Si       1.35622395       1.35706708       1.35759536       0.00000000
Si      -1.35801585       1.35779524      -1.35649698       0.00000000
Si       1.35752715      -1.35831532      -1.35663428       0.00000000
Si      -1.35915615      -1.35590440       1.35793860       0.00000000
Si       0.00047241       2.71150402       2.71350883       0.00000000
Si      -2.71394658      -0.00007141       2.71319991       0.00000000
Si      -2.71397916       0.00109084      -2.71471018       0.00000000
Si      -0.00087966      -2.71519087      -2.71371477       0.00000000
Si      -0.00055386       2.71529959      -2.71381775       0.00000000
Si      -2.71487511       2.71430590       0.00024027       0.00000000
