10
Lattice="16.28999089631971 0.0 0.0 0.0 16.28999089631971 0.0 0.0 0.0 34.32429715621058" Properties=species:S:1:pos:R:3:initial_magmoms:R:1 pbc="T T T"
Si      -1.29114540       1.37270943       1.39969070       0.00000000
Si      -1.89765468      -0.87527799      -1.07582567       0.00000000
Si       1.39531995       1.22811939      -1.51614079       0.00000000
Si       1.41999930      -1.36765953       1.38004003       0.00000000
Si       2.71894761       2.61112410      -0.03827161       0.00000000
Si      -0.04790889       2.55717162      -2.81586535       0.00000000
Si      -2.64072303      -0.01544292       2.76202282       0.00000000
Si      -2.61231327       2.80130985      -0.05249218       0.00000000
Si       0.07227873       2.69910639       2.76116471       0.00000000
Si       0.07499916      -2.72654690       2.75783525       0.00000000
