10
Lattice="16.28999089631971 0.0 0.0 0.0 16.28999089631971 0.0 0.0 0.0 34.32429715621058" Properties=species:S:1:pos:R:3:initial_magmoms:R:1 pbc="T T T"
Si       2.08252989      -0.42397983       1.00803652       0.00000000
Si      -1.69459983      -1.19446425       1.11348082       0.00000000
Si      -0.25200630      -0.20497707      -2.33909919       0.00000000
Si      -1.13494059       2.06601183       0.33383830       0.00000000
Si       1.34332227      -0.27758160       3.25875059       0.00000000
Si      -3.48998589      -0.72951507      -0.35082884       0.00000000
Si       0.22988448       2.02795839      -3.00907552       0.00000000
Si       0.03621267       3.49270632      -1.13029974       0.00000000
Si      -2.47829544      -1.07989668      -2.50697942       0.00000000
Si      -3.44725722       1.63761741      -0.11550132       0.00000000
