10
Lattice="16.28999089631971 0.0 0.0 0.0 16.28999089631971 0.0 0.0 0.0 34.32429715621058" Properties=species:S:1:pos:R:3:initial_magmoms:R:1 pbc="T T T"
Si       1.69459983       1.19446425      -1.11348082       0.00000000
Si      -1.79538606       0.46494918      -1.46430966       0.00000000
Si       0.69670701      -2.28964095       0.15998564       0.00000000
Si      -0.55361565       0.88210350       2.20094381       0.00000000
Si       1.25929845      -0.31296348       3.11527495       0.00000000
Si       0.55965924       3.26047608      -0.77964252       0.00000000
Si      -1.75265739       2.83208166      -1.22898215       0.00000000
Si      -3.42156789      -1.00129743      -0.52523069       0.00000000
Si      -0.78369561       0.11456757      -3.62046024       0.00000000
Si       0.88904304      -2.56898187       2.52482806       0.00000000
