10
Lattice="16.28999089631971 0.0 0.0 0.0 16.28999089631971 0.0 0.0 0.0 34.32429715621058" Properties=species:S:1:pos:R:3:initial_magmoms:R:1 pbc="T T T"
Si       0.37025541       2.25601839       0.59044689       0.00000000
Si      -0.19233603       0.27934092      -2.36484242       0.00000000
Si       1.79740602      -0.93077802       1.28750511       0.00000000
Si      -2.29413699      -0.72899379       0.10970052       0.00000000
Si      -0.88904304       2.56898187      -2.52482806       0.00000000
Si      -1.44265869       3.45108537      -0.32388425       0.00000000
Si       1.88149500      -0.21418092      -3.38005273       0.00000000
Si       2.64964995      -2.84815012       0.31774020       0.00000000
Si      -3.23845200      -0.62864739       2.21436462       0.00000000
Si      -3.87540729       0.90316647      -0.74339604       0.00000000
