10
Lattice="16.28999089631971 0.0 0.0 0.0 16.28999089631971 0.0 0.0 0.0 34.32429715621058" Properties=species:S:1:pos:R:3:initial_magmoms:R:1 pbc="T T T"
Si      -1.35684297       1.35330804      -1.36013536       0.00000000
Si       1.35505107       1.36260963       1.35711482       0.00000000
Si       1.35715248      -1.35876519      -1.36065022       0.00000000
Si      -1.36524861      -1.36715454       1.36583320       0.00000000
Si       2.62132164       0.00032580       2.78964016       0.00000000
Si       2.71414206       2.71090035      -0.00216243       0.00000000
Si      -2.71448415       2.71339272      -0.00061784       0.00000000
Si      -2.71204065      -2.71586880      -0.00216243       0.00000000
Si       0.00120546       2.71305063      -2.71797099       0.00000000
Si      -2.71415835      -0.00193851      -2.71790234       0.00000000
