10
Lattice="16.28999089631971 0.0 0.0 0.0 16.28999089631971 0.0 0.0 0.0 34.32429715621058" Properties=species:S:1:pos:R:3:initial_magmoms:R:1 pbc="T T T"
Si      -1.81410327      -0.92248641      -1.15099730       0.00000000
Si       1.02183912       1.81977219      -1.08427083       0.00000000
Si      -0.92233980       0.19989459       2.15772950       0.00000000
Si       1.70869068      -2.01458430       0.25221508       0.00000000
Si      -0.30871179      -2.04099039       1.95514738       0.00000000
Si       2.24339364       0.41418954      -2.56354589       0.00000000
Si      -0.47690604      -2.31557463      -2.55482751       0.00000000
Si      -2.88735363      -2.18017215       0.65199039       0.00000000
Si       3.50966421      -0.94809429      -1.13102055       0.00000000
Si       2.84894181       2.64446973       0.37924937       0.00000000
