10
Lattice="16.28999089631971 0.0 0.0 0.0 16.28999089631971 0.0 0.0 0.0 34.32429715621058" Properties=species:S:1:pos:R:3:initial_magmoms:R:1 pbc="T T T"
Si      -1.35645201      -1.35801585       1.35718347       0.00000000
Si       1.35840681       1.35687555       1.35708050       0.00000000
Si      -1.35757602       1.35671265      -1.35838482       0.00000000
Si       1.35829278      -1.35586557      -1.36205752       0.00000000
Si      -2.71459818       0.00001629       2.71398937       0.00000000
Si       2.71606428       2.71262212      -0.00058351       0.00000000
Si       0.00087966       2.71519087       2.71371477       0.00000000
Si      -2.71309950       2.71628171      -0.00099541       0.00000000
Si      -2.71466334      -2.71503801       0.00000000       0.00000000
Si       0.00066789      -2.71546155       2.71443558       0.00000000
