10
Lattice="16.28999089631971 0.0 0.0 0.0 16.28999089631971 0.0 0.0 0.0 34.32429715621058" Properties=species:S:1:pos:R:3:initial_magmoms:R:1 pbc="T T T"
Si      -1.46520405      -0.97837740      -1.53103613       0.00000000
Si      -0.61525701      -0.77542029       2.12913734       0.00000000
Si       2.30602869      -0.32109219      -0.34114938       0.00000000
Si      -0.74653812       2.16342980      -0.69280200       0.00000000
Si       0.20689929      -3.19319838       1.65319637       0.00000000
Si      -2.96785881       2.04500423       0.12638213       0.00000000
Si      -3.55972338      -0.22716405      -0.74246929       0.00000000
Si      -0.93100608       0.21859551      -3.52562215       0.00000000
Si       0.57718728       0.99663849       3.46757973       0.00000000
Si       1.08193293       3.50228551      -0.10860214       0.00000000
