10
Lattice="16.28999089631971 0.0 0.0 0.0 16.28999089631971 0.0 0.0 0.0 34.32429715621058" Properties=species:S:1:pos:R:3:initial_magmoms:R:1 pbc="T T T"
Si      -1.68117687       1.66762685       0.15679176       0.00000000
Si      -0.89520066      -1.77924660       1.30152281       0.00000000
Si       1.86858585       0.97562765       1.14621901       0.00000000
Si      -0.88705566       1.98419042      -2.10035129       0.00000000
Si      -0.29155842      -2.70587067      -1.61026871       0.00000000
Si       0.48726648       2.22896396       2.64206585       0.00000000
Si      -2.27735829      -0.47900370       2.65082199       0.00000000
Si      -2.18577591      -3.05441151      -0.16857877       0.00000000
Si      -1.47564594       0.06826324      -3.47631016       0.00000000
Si      -0.86899005       3.54661319       1.29607211       0.00000000
