10
Lattice="16.28999089631971 0.0 0.0 0.0 16.28999089631971 0.0 0.0 0.0 34.32429715621058" Properties=species:S:1:pos:R:3:initial_magmoms:R:1 pbc="T T T"
Si       0.81218682       1.87898634       1.13928035       0.00000000
Si       1.68117687      -1.66762685      -0.15679176       0.00000000
Si       0.79412121       0.31656357      -2.25714305       0.00000000
Si      -2.01064212      -0.85612584       1.02545749       0.00000000
Si      -0.59618142      -2.14663055       2.49403023       0.00000000
Si       2.16844335       0.56133711       2.48527409       0.00000000
Si       0.78597621      -3.44687345       1.14473105       0.00000000
Si       3.54976272      -0.69199920       0.98942725       0.00000000
Si       1.76137254       3.49845669      -0.23701974       0.00000000
Si       0.20553093      -1.59936360      -3.63310192       0.00000000
