10
Lattice="16.28999089631971 0.0 0.0 0.0 16.28999089631971 0.0 0.0 0.0 34.32429715621058" Properties=species:S:1:pos:R:3:initial_magmoms:R:1 pbc="T T T"
Si       1.28915802      -1.32403491       1.40523751       0.00000000
Si      -1.34387613      -1.35819504      -1.34132563       0.00000000
Si      -1.39932729       1.20080106       1.44937858       0.00000000
Si       1.36866951       1.35482301      -1.34383131       0.00000000
Si       0.35521974       2.10426075       2.80656205       0.00000000
Si      -0.42414273      -2.19235707       2.78147097       0.00000000
Si       2.25163053       0.45234072       2.75002990       0.00000000
Si      -2.36185452      -0.64262421       2.71587721       0.00000000
Si      -2.69824302       2.70492192       0.03803134       0.00000000
Si      -2.70488934      -0.00327429      -2.70067153       0.00000000
