10
Lattice="16.28999089631971 0.0 0.0 0.0 16.28999089631971 0.0 0.0 0.0 34.32429715621058" Properties=species:S:1:pos:R:3:initial_magmoms:R:1 pbc="T T T"
Si      -1.28915802       1.32403491      -1.40523751       0.00000000
Si      -1.71330075      -0.86832216       1.37623346       0.00000000
Si       1.42657787      -1.38655430      -1.37149671       0.00000000
Si       0.96247251       1.77637563       1.34479239       0.00000000
Si      -0.21782988      -0.79201980       3.38248975       0.00000000
Si      -2.68848531       2.52483597       0.04414107       0.00000000
Si      -2.63303415      -0.03416013      -2.74656314       0.00000000
Si      -2.60312571      -2.79082628       0.12452862       0.00000000
Si      -0.93393828       3.42829566       1.40132454       0.00000000
Si       0.07951149       2.67885792      -2.74906882       0.00000000
