10
Lattice="16.28999089631971 0.0 0.0 0.0 16.28999089631971 0.0 0.0 0.0 34.32429715621058" Properties=species:S:1:pos:R:3:initial_magmoms:R:1 pbc="T T T"
Si       0.85224393      -1.91737210      -0.96976491       0.00000000
Si      -1.79740602       0.93077802      -1.28750511       0.00000000
Si       1.69896555       1.26627057       1.18096243       0.00000000
Si       2.60674209      -0.89313183       2.21669867       0.00000000
Si       2.01815181      -2.80905900       0.84073980       0.00000000
Si      -1.42715061       3.18679641      -0.69705822       0.00000000
Si      -0.97622712      -3.25622781      -1.55396477       0.00000000
Si       3.32552205       2.10479832      -0.25616237       0.00000000
Si       2.13133473      -2.09482069      -2.94492337       0.00000000
Si       1.14614811       3.49065378       2.16006355       0.00000000
