10
Lattice="16.28999089631971 0.0 0.0 0.0 16.28999089631971 0.0 0.0 0.0 34.32429715621058" Properties=species:S:1:pos:R:3:initial_magmoms:R:1 pbc="T T T"
Si       1.82286403       0.98784189      -1.23495458       0.00000000
Si      -0.96247251      -1.77637563      -1.34479239       0.00000000
Si       0.66788185      -0.95980680       2.16256923       0.00000000
Si      -1.89641079       1.65192003       0.05653215       0.00000000
Si      -1.18030239      -2.56839543       2.03769736       0.00000000
Si       0.47649390       2.25258120      -2.72902342       0.00000000
Si      -2.25163053      -0.45234072      -2.75002990       0.00000000
Si       0.22839394       0.96428655       3.50420378       0.00000000
Si      -2.67577326      -2.64469779       0.03144107       0.00000000
Si      -0.87989091       3.45836700      -1.22506917       0.00000000
