10
Lattice="16.28999089631971 0.0 0.0 0.0 16.28999089631971 0.0 0.0 0.0 34.32429715621058" Properties=species:S:1:pos:R:3:initial_magmoms:R:1 pbc="T T T"
Si       0.88167996      -2.12789754       0.33970776       0.00000000
Si       1.66626600       0.66437136      -1.50769560       0.00000000
Si       0.35851032       0.93915108       2.11839383       0.00000000
Si      -2.09236905       0.18394668      -1.07119326       0.00000000
Si      -1.29769398      -0.74204208       2.75593368       0.00000000
Si      -0.74487654      -2.96642529       1.77683256       0.00000000
Si       1.06689726      -2.80688103      -1.87338686       0.00000000
Si      -0.16549011       3.16561941       1.64856259       0.00000000
Si      -1.35316143       0.03754845      -3.32190734       0.00000000
Si      -2.49973308       2.52237618      -0.83651791       0.00000000
