10
Lattice="16.28999089631971 0.0 0.0 0.0 16.28999089631971 0.0 0.0 0.0 34.32429715621058" Properties=species:S:1:pos:R:3:initial_magmoms:R:1 pbc="T T T"
Si       1.35638481      -1.20578580      -1.50395424       0.00000000
Si       1.72353046       0.85765221       1.43228507       0.00000000
Si      -1.01651988      -1.80644697       1.28160132       0.00000000
Si      -1.35763248       1.50884496      -1.46962993       0.00000000
Si       2.70275494      -2.47052511      -0.00988540       0.00000000
Si       2.59216213       2.69335602      -0.08982674       0.00000000
Si       0.87989091      -3.45836700       1.22506917       0.00000000
Si      -0.00307011      -2.55588471      -2.86879204       0.00000000
Si      -2.77106691      -2.70990666      -0.07558214       0.00000000
Si       3.62305849      -0.62900577       1.28551430       0.00000000
