10
Lattice="16.28999089631971 0.0 0.0 0.0 16.28999089631971 0.0 0.0 0.0 34.32429715621058" Properties=species:S:1:pos:R:3:initial_magmoms:R:1 pbc="T T T"
Si      -1.33903800      -1.35239580       1.38183176       0.00000000
Si       1.23211044      -1.54008918      -1.32111204       0.00000000
Si       1.38028428       1.35700587       1.37785014       0.00000000
Si      -1.33126767       1.30846167      -1.58657974       0.00000000
Si      -2.67178806       2.70471015       0.01071262       0.00000000
Si      -2.69457777      -2.70731655      -0.00084438       0.00000000
Si       2.94736014      -0.36061173      -2.41987872       0.00000000
Si      -2.69641854      -0.00014661       2.74110901       0.00000000
Si       2.72563386      -2.71467963       0.04820164       0.00000000
Si       0.02013444      -2.71593396       2.74172685       0.00000000
