10
Lattice="16.28999089631971 0.0 0.0 0.0 16.28999089631971 0.0 0.0 0.0 34.32429715621058" Properties=species:S:1:pos:R:3:initial_magmoms:R:1 pbc="T T T"
Si      -2.26238778      -0.26184546       0.72812172       0.00000000
Si      -0.25852230       2.08510371      -1.15755324       0.00000000
Si       0.55122102      -1.71909999      -1.58749963       0.00000000
Si       2.11317138       0.25098003       1.16606567       0.00000000
Si       2.74865310      -1.10179044      -2.24748759       0.00000000
Si       1.96024086       2.72671794      -1.63723557       0.00000000
Si       2.89430361       2.35822185       0.45795503       0.00000000
Si      -2.45605959       1.20290247       2.60689750       0.00000000
Si       3.70999930      -1.01538828      -0.08560484       0.00000000
Si      -2.74427856      -2.49478092       1.39809805       0.00000000
