10
Lattice="16.28999089631971 0.0 0.0 0.0 16.28999089631971 0.0 0.0 0.0 34.32429715621058" Properties=species:S:1:pos:R:3:initial_magmoms:R:1 pbc="T T T"
Si      -0.06972120       2.32150419       0.05402647       0.00000000
Si       0.46315728      -1.21370274       2.00251494       0.00000000
Si       2.22892812      -0.86196906      -0.35240776       0.00000000
Si      -2.16253008      -0.38674089      -1.20286134       0.00000000
Si      -2.36758860       2.51525745       0.46646746       0.00000000
Si       1.80081063      -2.90043450       0.82007657       0.00000000
Si      -3.33368334      -1.81343538       0.26127670       0.00000000
Si       2.40670089      -1.33866333      -2.64369317       0.00000000
Si       0.48604473       3.22056558      -2.04476817       0.00000000
Si       1.27938402       3.27249810       1.71384744       0.00000000
