10
Lattice="16.28999089631971 0.0 0.0 0.0 16.28999089631971 0.0 0.0 0.0 34.32429715621058" Properties=species:S:1:pos:R:3:initial_magmoms:R:1 pbc="T T T"
Si      -1.46266281      -0.99494433      -1.50131127       0.00000000
Si       0.42770439      -1.26006408       1.96327954       0.00000000
Si       2.31768323      -0.15744285      -0.48802313       0.00000000
Si      -0.53877546       2.31353838       0.15277753       0.00000000
Si       1.63369708       0.46063233       3.01517979       0.00000000
Si      -0.93866238      -3.22141266      -1.03148003       0.00000000
Si      -2.43299295       1.96499754       1.59446747       0.00000000
Si      -0.88731630      -0.06561612      -3.64029969       0.00000000
Si       2.61663731       1.05451686      -2.51140725       0.00000000
Si      -0.40972608       3.18635658      -2.07219330       0.00000000
