10
Lattice="16.28999089631971 0.0 0.0 0.0 16.28999089631971 0.0 0.0 0.0 34.32429715621058" Properties=species:S:1:pos:R:3:initial_magmoms:R:1 pbc="T T T"
Si      -1.35330804       1.35268902      -1.35450617       0.00000000
Si       1.35938421       1.35521397       1.35635968       0.00000000
Si      -1.35532800      -1.35966114       1.35615374       0.00000000
Si       1.36247931      -1.36148562      -1.36459752       0.00000000
Si      -2.68959303      -0.01378134      -2.73173504       0.00000000
Si      -2.71248048       2.71069990      -0.00130432       0.00000000
Si      -2.71251306      -0.00239463       2.71364613       0.00000000
Si       0.00197109       2.71275281       2.71354315       0.00000000
Si       2.71653669       2.71117728      -0.00157892       0.00000000
Si       0.00195480      -2.71648782       2.71323423       0.00000000
