10
Lattice="16.28999089631971 0.0 0.0 0.0 16.28999089631971 0.0 0.0 0.0 34.32429715621058" Properties=species:S:1:pos:R:3:initial_magmoms:R:1 pbc="T T T"
Si      -1.35710361      -1.35614250      -1.35725212       0.00000000
Si       1.35799834       1.35811359      -1.35690887       0.00000000
Si      -1.35863487       1.35580041       1.35896833       0.00000000
Si       1.36052451      -1.35431802       1.35876239       0.00000000
Si      -2.71438641       0.00068418      -2.71433261       0.00000000
Si       0.00050499      -2.71454931      -2.71422964       0.00000000
Si       2.71514945      -2.71396287       0.00010297       0.00000000
Si      -2.71562445      -2.71386513       0.00048054       0.00000000
Si       0.00032580       2.71555929      -2.71412667       0.00000000
Si       2.71558114       2.71440270      -0.00020595       0.00000000
