10
Lattice="16.28999089631971 0.0 0.0 0.0 16.28999089631971 0.0 0.0 0.0 34.32429715621058" Properties=species:S:1:pos:R:3:initial_magmoms:R:1 pbc="T T T"
Si      -0.73691073      -1.53740133       1.64142313       0.00000000
Si       2.28683907      -0.56231451      -0.25678021       0.00000000
Si      -0.24361695       2.36414231       0.26903399       0.00000000
Si      -1.12531320      -0.99619866      -2.09687249       0.00000000
Si       0.04375494      -3.55887630       0.56786149       0.00000000
Si       0.49479246      -0.83377107       3.49040540       0.00000000
Si       1.85719032       3.07217087      -0.55498987       0.00000000
Si       2.26251810      -2.91726207       0.08817917       0.00000000
Si      -3.34924029      -0.20536803      -1.55341558       0.00000000
Si      -0.97647147      -3.31330455      -1.51116235       0.00000000
