10
Lattice="16.28999089631971 0.0 0.0 0.0 16.28999089631971 0.0 0.0 0.0 34.32429715621058" Properties=species:S:1:pos:R:3:initial_magmoms:R:1 pbc="T T T"
Si       0.96052356      -1.50871464       1.54205424       0.00000000
Si      -1.79841600       0.94825719       1.37273238       0.00000000
Si      -1.19244429      -1.77205878      -1.33844239       0.00000000
Si       1.67065353       1.61396011      -1.76567716       0.00000000
Si       2.85474105      -1.16017380       0.10036430       0.00000000
Si      -0.57718728      -0.99663849      -3.46757973       0.00000000
Si       2.98379043      -0.28735560      -2.12460653       0.00000000
Si      -3.44430873       1.06438860      -0.72630253       0.00000000
Si      -3.46035438      -1.33174008      -0.59786094       0.00000000
Si       2.25109881      -0.23354973       3.01215582       0.00000000
