10
Lattice="16.28999089631971 0.0 0.0 0.0 16.28999089631971 0.0 0.0 0.0 34.32429715621058" Properties=species:S:1:pos:R:3:initial_magmoms:R:1 pbc="T T T"
Si      -0.90428396      -0.88829370       1.88996551       0.00000000
Si       1.73470581      -1.24382295      -0.87128845       0.00000000
Si       1.16289423       1.64185281       1.22771215       0.00000000
Si      -1.79812115       0.29688525      -1.49695208       0.00000000
Si       1.85763015       0.16257420      -2.71920666       0.00000000
Si      -2.12716091       1.07724141       2.31850460       0.00000000
Si      -0.42090102       0.09137061      -3.44296920       0.00000000
Si      -2.69727281      -1.88146242      -1.45267372       0.00000000
Si       0.81319680      -0.75851127       3.52177783       0.00000000
Si      -3.22956485       1.85341104       0.38889450       0.00000000
