10
Lattice="16.28999089631971 0.0 0.0 0.0 16.28999089631971 0.0 0.0 0.0 34.32429715621058" Properties=species:S:1:pos:R:3:initial_magmoms:R:1 pbc="T T T"
Si       1.45554408       1.43052264      -1.22953134       0.00000000
Si      -2.24916749       0.60986502      -0.65360363       0.00000000
Si       0.38861261      -1.99524807      -1.33672618       0.00000000
Si       0.83002437       0.78934824       2.20185310       0.00000000
Si      -1.47752648      -2.27322063       2.06069466       0.00000000
Si      -0.88280071       2.57121360       2.34115594       0.00000000
Si       0.12538739      -1.20541113       3.45468207       0.00000000
Si       3.63838779       0.40480650      -0.76663361       0.00000000
Si       1.00717812       3.67383483      -0.11014673       0.00000000
Si      -2.60767781      -0.32928606      -2.77199746       0.00000000
