10
Lattice="16.28999089631971 0.0 0.0 0.0 16.28999089631971 0.0 0.0 0.0 34.32429715621058" Properties=species:S:1:pos:R:3:initial_magmoms:R:1 pbc="T T T"
Si       1.35710361      -1.35666378      -1.35704617       0.00000000
Si      -1.35713619       1.35778779      -1.35718347       0.00000000
Si      -1.35813965      -1.35695700       1.35721779       0.00000000
Si       1.35785295       1.35881406       1.35824752       0.00000000
Si      -0.00118917      -2.71339272      -2.71440126       0.00000000
Si       2.71443528       0.00039096      -2.71409234       0.00000000
Si       2.71309950      -0.00164529       2.71546531       0.00000000
Si      -2.71276460       0.00268785       2.71587721       0.00000000
Si      -2.71378730      -0.00125433      -2.71501910       0.00000000
Si       2.71458189      -2.71474479       0.00034324       0.00000000
