10
Lattice="16.28999089631971 0.0 0.0 0.0 16.28999089631971 0.0 0.0 0.0 34.32429715621058" Properties=species:S:1:pos:R:3:initial_magmoms:R:1 pbc="T T T"
Si      -1.45554408      -1.43052264       1.22953134       0.00000000
Si      -0.59370534       0.21844890      -2.35962513       0.00000000
Si       2.18284371      -1.02571614       0.46289773       0.00000000
Si      -0.44836596       2.24331219       1.11938460       0.00000000
Si       2.26877346      -1.14649020      -2.22857489       0.00000000
Si       0.54340182      -2.93119002      -1.84688849       0.00000000
Si      -0.62551971      -0.64117440       3.43138444       0.00000000
Si      -0.14941188       3.45527190      -0.90399952       0.00000000
Si      -1.06693147      -3.42577071      -0.10719484       0.00000000
Si      -1.39939734       2.39982651      -2.58716102       0.00000000
