10
Lattice="16.28999089631971 0.0 0.0 0.0 16.28999089631971 0.0 0.0 0.0 34.32429715621058" Properties=species:S:1:pos:R:3:initial_magmoms:R:1 pbc="T T T"
Si       1.35713619      -1.35778779       1.35718347       0.00000000
Si      -1.35815458       1.35733167       1.35738941       0.00000000
Si       1.35725022       1.35736425      -1.35859076       0.00000000
Si      -1.35665111      -1.35904212      -1.35783563       0.00000000
Si      -0.00057178       2.71362078       2.71409234       0.00000000
Si       0.00075260      -2.71347417      -2.71426396       0.00000000
Si       2.71423980      -2.71445157       0.00013730       0.00000000
Si       2.71332756      -0.00158013      -2.71553396       0.00000000
Si      -0.00100346      -2.71474479       2.71440126       0.00000000
Si       2.71450044       2.71494027       0.00024027       0.00000000
