10
Lattice="16.28999089631971 0.0 0.0 0.0 16.28999089631971 0.0 0.0 0.0 34.32429715621058" Properties=species:S:1:pos:R:3:initial_magmoms:R:1 pbc="T T T"
Si      -1.34403318      -1.33108848      -1.37486049       0.00000000
Si      -1.37477241       1.29852477       1.44464183       0.00000000
Si       1.36935043       1.38510612      -1.37589022       0.00000000
Si       1.24957006      -1.51400889       1.40256021       0.00000000
Si       0.60743455       2.17349325       2.57761886       0.00000000
Si       2.09322916       0.19248264       2.83755691       0.00000000
Si      -2.70022455      -2.69851995       0.02275702       0.00000000
Si       0.01059176      -2.69073333      -2.73351990       0.00000000
Si      -2.68847946       2.74155813       0.00645297       0.00000000
Si       2.74632784      -2.69159670      -0.00157892       0.00000000
