10
Lattice="16.28999089631971 0.0 0.0 0.0 16.28999089631971 0.0 0.0 0.0 34.383488856416385" Properties=species:S:1:pos:R:3:initial_magmoms:R:1 pbc="T T T"
Si      -1.60745957       1.72375146       0.11631941       0.00000000
Si       2.10316932       0.38568204       1.01620458       0.00000000
Si       0.50855751       0.17839179      -2.33078925       0.00000000
Si      -1.53976224      -1.94784417       0.32231100       0.00000000
Si      -2.06556290      -0.66779226       2.33814732       0.00000000
Si      -2.21433947      -1.73328858      -1.99104580       0.00000000
Si      -3.11605613       0.47957632      -1.49674849       0.00000000
Si      -2.22028532       1.63307806       2.34244525       0.00000000
Si       3.67394886      -0.57493926      -0.41604045       0.00000000
Si       2.80336239      -0.10770948      -2.54730220       0.00000000
