10
Lattice="16.28999089631971 0.0 0.0 0.0 16.28999089631971 0.0 0.0 0.0 34.383488856416385" Properties=species:S:1:pos:R:3:initial_magmoms:R:1 pbc="T T T"
Si      -1.35886293       1.35475133       1.36134624       0.00000000
Si       1.35467640       1.35408344      -1.37021374       0.00000000
Si       1.36008468      -1.36027599       1.36206829       0.00000000
Si      -1.38103362      -1.35293078      -1.38572414       0.00000000
Si       2.53228050      -0.23681913      -2.70731617       0.00000000
Si      -2.71480995       2.71120334       0.00381657       0.00000000
Si      -2.71765581      -2.70897554       0.00175356       0.00000000
Si       2.71736748       2.71258799       0.00202863       0.00000000
Si       0.00061902       2.71288121       2.71849768       0.00000000
Si       2.71565703      -2.71624088       0.00725492       0.00000000
