10
Lattice="16.28999089631971 0.0 0.0 0.0 16.28999089631971 0.0 0.0 0.0 34.383488856416385" Properties=species:S:1:pos:R:3:initial_magmoms:R:1 pbc="T T T"
Si      -1.35594702      -1.35320215       1.35780473       0.00000000
Si       1.35747828      -1.35749294      -1.35756405       0.00000000
Si      -1.35760860       1.35755973      -1.35794227       0.00000000
Si       1.35933534       1.35902583       1.35663569       0.00000000
Si      -2.71296918      -0.00221544       2.71299632       0.00000000
Si       2.71230129      -0.00127062       2.71495618       0.00000000
Si       2.71451673      -2.71480990       0.00000000       0.00000000
Si      -2.71454931      -2.71483135      -0.00034384       0.00000000
Si       2.71451673       2.71533123       0.00000000       0.00000000
Si       0.00185706      -2.71559747      -2.71437166       0.00000000
