10
Lattice="16.28999089631971 0.0 0.0 0.0 16.28999089631971 0.0 0.0 0.0 34.383488856416385" Properties=species:S:1:pos:R:3:initial_magmoms:R:1 pbc="T T T"
Si       1.01131578       0.79861725      -1.89466883       0.00000000
Si      -1.54530850      -1.73177850      -0.30797308       0.00000000
Si      -1.59264561       1.63391958       0.69368728       0.00000000
Si       2.12419971      -0.59797332       1.07386572       0.00000000
Si       2.58232338       2.40257952      -0.97934546       0.00000000
Si      -1.66662892       1.48631589       3.01955968       0.00000000
Si      -0.43778886      -3.80453669      -0.05136896       0.00000000
Si       1.75798422      -0.82603332       3.36810530       0.00000000
Si       0.51305355       1.10297961       3.71200915       0.00000000
Si      -0.89909234       3.80218374       0.12615309       0.00000000
