10
Lattice="16.28999089631971 0.0 0.0 0.0 16.28999089631971 0.0 0.0 0.0 34.383488856416385" Properties=species:S:1:pos:R:3:initial_magmoms:R:1 pbc="T T T"
Si       1.38593691       1.18071549      -1.42770641       0.00000000
Si       1.62595377      -0.98508888       1.39765522       0.00000000
Si      -1.82441484       0.98456760       1.13376180       0.00000000
Si      -1.31426091      -1.59220089      -1.19977813       0.00000000
Si       2.68434765       2.35142892       0.14468580       0.00000000
Si      -0.07954407       2.44516158      -2.64495136       0.00000000
Si       0.27789111      -1.91663253       3.08451013       0.00000000
Si      -0.80817948       2.62503576       2.53640262       0.00000000
Si       2.67628410      -0.31385943      -2.63116357       0.00000000
Si       0.71161236       3.62628432       0.79941656       0.00000000
