10
Lattice="16.28999089631971 0.0 0.0 0.0 16.28999089631971 0.0 0.0 0.0 34.383488856416385" Properties=species:S:1:pos:R:3:initial_magmoms:R:1 pbc="T T T"
Si      -1.41866352       1.69556094      -0.81193216       0.00000000
Si       2.04965667       0.93361248      -0.74268377       0.00000000
Si      -0.56526300      -2.31067134       0.07615947       0.00000000
Si       0.53810757       0.34424028       2.32807295       0.00000000
Si       1.47932748      -3.26748078       0.74295884       0.00000000
Si      -1.89328896      -2.45780262       1.97770500       0.00000000
Si      -1.37220444      -0.53512650       3.38921677       0.00000000
Si       2.68177383       2.78627418       0.98299011       0.00000000
Si       0.30278223       2.37091176      -3.20052008       0.00000000
Si      -1.02273507       3.86486766      -0.01107149       0.00000000
