10
Lattice="16.28999089631971 0.0 0.0 0.0 16.28999089631971 0.0 0.0 0.0 34.383488856416385" Properties=species:S:1:pos:R:3:initial_magmoms:R:1 pbc="T T T"
Si       1.35671265       1.35539316      -1.35653254       0.00000000
Si      -1.35676152       1.35713619       1.35794227       0.00000000
Si      -1.35819504      -1.35827649      -1.35608556       0.00000000
Si       1.35777150      -1.35782037       1.35759843       0.00000000
Si      -2.71225405       0.00226431      -2.71268687       0.00000000
Si      -2.71402640       0.00094482       2.71461235       0.00000000
Si      -2.71502498       2.71435383       0.00030945       0.00000000
Si       0.00272043       2.71391400      -2.71550632       0.00000000
Si       0.00144981      -2.71518462       2.71433728       0.00000000
Si       0.00009774       2.71700910       2.71251495       0.00000000
