10
Lattice="16.28999089631971 0.0 0.0 0.0 16.28999089631971 0.0 0.0 0.0 34.383488856416385" Properties=species:S:1:pos:R:3:initial_magmoms:R:1 pbc="T T T"
Si      -1.35632169      -1.35736425       1.35673884       0.00000000
Si      -1.35777150       1.35782037      -1.35759843       0.00000000
Si       1.35803214      -1.35829278      -1.35801103       0.00000000
Si       1.35852084       1.35788553       1.35807980       0.00000000
Si      -0.00105885       2.71321353      -2.71413098       0.00000000
Si       2.71366965       0.00081450      -2.71557508       0.00000000
Si       2.71471221      -2.71477737      -0.00024068       0.00000000
Si      -2.71453302       2.71495656       0.00034384       0.00000000
Si      -2.71596654      -0.00045612      -2.71368399       0.00000000
Si      -2.71513575      -2.71469592      -0.00068767       0.00000000
