10
Lattice="16.28999089631971 0.0 0.0 0.0 16.28999089631971 0.0 0.0 0.0 34.383488856416385" Properties=species:S:1:pos:R:3:initial_magmoms:R:1 pbc="T T T"
Si      -1.24493067       1.92901293       0.34390385       0.00000000
Si       0.36621549       0.22806000      -2.29423958       0.00000000
Si      -1.46823399      -1.83364410       0.39080295       0.00000000
Si       2.26162215       0.46905426       0.71978436       0.00000000
Si      -1.95177006       1.37182977       2.51797306       0.00000000
Si       1.18327302      -1.99468511      -2.79125319       0.00000000
Si       2.04356421       3.01177665       0.53260054       0.00000000
Si      -1.02529260      -2.42395919       2.62903179       0.00000000
Si      -0.86708412      -0.31301887       3.74587690       0.00000000
Si      -0.06573015       3.86017614      -0.17012960       0.00000000
