10
Lattice="16.28999089631971 0.0 0.0 0.0 16.28999089631971 0.0 0.0 0.0 34.383488856416385" Properties=species:S:1:pos:R:3:initial_magmoms:R:1 pbc="T T T"
Si       1.25485128       1.86748560      -0.73353776       0.00000000
Si       1.21814991      -2.03918220      -0.08300179       0.00000000
Si       0.01891269       0.61313931       2.30813051       0.00000000
Si      -2.19975273      -0.78139872      -0.52899027       0.00000000
Si      -0.21139533      -3.59389980      -1.19114787       0.00000000
Si       3.56863401       1.37793852      -0.15314414       0.00000000
Si       1.80978642      -2.57004072       2.19328960       0.00000000
Si       0.40534407       3.80747799       0.34971466       0.00000000
Si      -2.19023937       0.31902336       3.19048010       0.00000000
Si      -3.69111852       1.06479585      -0.57049117       0.00000000
