10
Lattice="16.28999089631971 0.0 0.0 0.0 16.28999089631971 0.0 0.0 0.0 34.383488856416385" Properties=species:S:1:pos:R:3:initial_magmoms:R:1 pbc="T T T"
Si      -0.97858917       2.11602213      -0.14097238       0.00000000
Si      -1.49004630      -1.85332959      -0.12484652       0.00000000
Si       2.20915206       0.29411595      -0.88234958       0.00000000
Si      -2.55182850      -0.64685961       1.56118318       0.00000000
Si       0.97453296       3.04430778       0.89857860       0.00000000
Si      -2.79453321       2.15062209       1.42512764       0.00000000
Si       3.33262449      -1.57279950       0.95221687       0.00000000
Si      -1.37272572       2.63324592      -2.40925241       0.00000000
Si       0.30920049       1.37031480       3.55948391       0.00000000
Si      -0.00951336      -1.10042208      -3.71947037       0.00000000
