10
Lattice="16.28999089631971 0.0 0.0 0.0 16.28999089631971 0.0 0.0 0.0 34.383488856416385" Properties=species:S:1:pos:R:3:initial_magmoms:R:1 pbc="T T T"
Si      -1.94792562       1.35334062       0.02523749       0.00000000
Si       1.78997778       0.87436575       1.30362462       0.00000000
Si      -0.82099971      -1.84518459       1.29175199       0.00000000
Si       0.66533247       1.67399298      -2.66090531       0.00000000
Si      -2.18067714      -0.52191531       2.75911290       0.00000000
Si       0.53755371       2.21413680       2.76552542       0.00000000
Si      -1.15927785       3.22833591       1.47992262       0.00000000
Si      -0.30920049      -1.37031480      -3.55948391       0.00000000
Si      -3.10373370       0.78030729      -2.13435626       0.00000000
Si      -2.20317363      -3.27386646      -0.09407328       0.00000000
