10
Lattice="16.28999089631971 0.0 0.0 0.0 16.28999089631971 0.0 0.0 0.0 34.383488856416385" Properties=species:S:1:pos:R:3:initial_magmoms:R:1 pbc="T T T"
Si       1.18951209       1.91412387      -0.55151147       0.00000000
Si       0.66740130      -1.31626458      -1.94940737       0.00000000
Si       0.63501678      -0.75535101       2.31724214       0.00000000
Si      -1.12347243       1.86691545      -1.83456646       0.00000000
Si      -0.45525663      -3.33244530      -1.45108719       0.00000000
Si      -3.33262449       1.57279950      -0.95221687       0.00000000
Si       1.42584741      -3.02801778       1.85368369       0.00000000
Si       1.55173653       3.41656686       1.26644775       0.00000000
Si       2.97457029      -1.86388551      -1.85217081       0.00000000
Si      -0.68488047      -3.81827826       0.87193138       0.00000000
