10
Lattice="16.28999089631971 0.0 0.0 0.0 16.28999089631971 0.0 0.0 0.0 34.383488856416385" Properties=species:S:1:pos:R:3:initial_magmoms:R:1 pbc="T T T"
Si      -1.35663509       1.35778779      -1.35708268       0.00000000
Si      -1.35767765      -1.35672894       1.35725460       0.00000000
Si       1.35743434      -1.35795232      -1.35783912       0.00000000
Si       1.35848016       1.35731538       1.35756405       0.00000000
Si       0.00034731       2.71601541      -2.71103646       0.00000000
Si       2.71293990      -0.00097740      -2.71495618       0.00000000
Si       2.71469922       2.71500543      -0.00030945       0.00000000
Si      -2.71411337       0.00105885      -2.71595330       0.00000000
Si       2.71706127      -0.00262269       2.71313385       0.00000000
Si      -2.71518851       2.71536381       0.00017192       0.00000000
