10
Lattice="16.28999089631971 0.0 0.0 0.0 16.28999089631971 0.0 0.0 0.0 34.383488856416385" Properties=species:S:1:pos:R:3:initial_magmoms:R:1 pbc="T T T"
Si      -0.77056587      -1.80662616      -1.34006284       0.00000000
Si       1.92749796       0.90511868      -1.33487093       0.00000000
Si       2.45633652      -0.29918214       0.62045040       0.00000000
Si      -2.04239133       1.57090727       0.34338810       0.00000000
Si      -0.67274442      -2.74053186       1.14462698       0.00000000
Si       0.39055275       2.05652032      -2.74548874       0.00000000
Si       2.02689954      -0.25669782       2.87975634       0.00000000
Si      -2.34057978      -0.67179960      -2.74026244       0.00000000
Si      -0.95765652       3.35468834      -1.19847156       0.00000000
Si       1.60166538      -2.72883564       2.26800496       0.00000000
