10
Lattice="16.28999089631971 0.0 0.0 0.0 16.28999089631971 0.0 0.0 0.0 34.383488856416385" Properties=species:S:1:pos:R:3:initial_magmoms:R:1 pbc="T T T"
Si      -0.07669332       2.12675724       0.96425110       0.00000000
Si       2.00821491      -1.06789095       0.63392874       0.00000000
Si      -1.25261955      -1.76669937       1.03384332       0.00000000
Si      -0.54478647       0.68059620      -2.33725334       0.00000000
Si       1.75780503      -0.51168519       2.92012257       0.00000000
Si      -2.41025211       2.34383778       0.92209692       0.00000000
Si      -0.68955570      -3.45154149      -0.56423337       0.00000000
Si       1.61228646      -3.23719767      -0.16693193       0.00000000
Si       1.16066250       1.76103045       2.97097578       0.00000000
Si      -0.22641471      -1.80147852       3.23132771       0.00000000
