10
Lattice="16.28999089631971 0.0 0.0 0.0 16.28999089631971 0.0 0.0 0.0 34.383488856416385" Properties=species:S:1:pos:R:3:initial_magmoms:R:1 pbc="T T T"
Si      -1.35716877       1.35604802       1.36309979       0.00000000
Si       1.35677781      -1.36176648       1.36371870       0.00000000
Si      -1.37142252      -1.37418503      -1.34104965       0.00000000
Si       1.36513458       1.37437427      -1.37666409       0.00000000
Si       2.70728397       2.71810379       0.00213178       0.00000000
Si      -2.71322982       2.71263035       0.00367904       0.00000000
Si       2.71401174      -2.71582386       0.00577643       0.00000000
Si      -2.71494027      -2.71619853       0.00890533       0.00000000
Si      -0.01220121      -2.68925487      -2.74347730       0.00000000
Si       0.00024435       2.71316792       2.72025124       0.00000000
