10
Lattice="16.28999089631971 0.0 0.0 0.0 16.28999089631971 0.0 0.0 0.0 34.383488856416385" Properties=species:S:1:pos:R:3:initial_magmoms:R:1 pbc="T T T"
Si       1.35661491       1.35641291      -1.35790788       0.00000000
Si      -1.36098063       1.35478391       1.35708268       0.00000000
Si      -1.35876519      -1.35875536      -1.35787350       0.00000000
Si       1.36013355      -1.36195951       1.35976459       0.00000000
Si       2.70936909       0.02555901       2.71279002       0.00000000
Si      -0.00676035       2.71411925       2.71206797       0.00000000
Si       2.71322982      -0.00143515      -2.71578139       0.00000000
Si      -2.71394658       2.71508036      -0.00123781       0.00000000
Si      -0.00066789       2.71385861      -2.71571262       0.00000000
Si       2.71611315       2.71384232      -0.00096274       0.00000000
