10
Lattice="16.28999089631971 0.0 0.0 0.0 16.28999089631971 0.0 0.0 0.0 34.383488856416385" Properties=species:S:1:pos:R:3:initial_magmoms:R:1 pbc="T T T"
Si       0.10195911      -1.28600820       1.95862215       0.00000000
Si       0.94991877      -1.34505945      -1.70270570       0.00000000
Si       1.85569164       1.38598252       0.54735106       0.00000000
Si      -1.70787618       1.64426047      -0.65479953       0.00000000
Si      -0.69276483       0.57749353       3.31677072       0.00000000
Si       2.27400255       0.31121556      -2.74937407       0.00000000
Si       2.41408026       2.27201191      -1.48316700       0.00000000
Si       2.44377693      -1.95420771       1.95167669       0.00000000
Si      -0.53471925       3.66387838      -0.19134422       0.00000000
Si       1.11206943       3.37632730       1.47398661       0.00000000
