10
Lattice="16.28999089631971 0.0 0.0 0.0 16.28999089631971 0.0 0.0 0.0 34.383488856416385" Properties=species:S:1:pos:R:3:initial_magmoms:R:1 pbc="T T T"
Si      -1.66658103       1.27918854      -1.00795254       0.00000000
Si      -1.07849574      -2.06100170       0.39637308       0.00000000
Si       0.36329958       1.14153804       2.04939462       0.00000000
Si       2.13110667      -0.00937978      -1.05385452       0.00000000
Si       2.02624794       2.61153135       1.27294624       0.00000000
Si       3.45393612       0.86199675       0.61536164       0.00000000
Si       0.68945796      -0.71447030       3.47885458       0.00000000
Si      -3.42031356      -1.39280219       0.40331855       0.00000000
Si      -0.47452770      -2.65618943       2.60169691       0.00000000
Si       2.07702387       1.40669037      -2.91579025       0.00000000
