10
Lattice="16.28999089631971 0.0 0.0 0.0 16.28999089631971 0.0 0.0 0.0 34.383488856416385" Properties=species:S:1:pos:R:3:initial_magmoms:R:1 pbc="T T T"
Si       0.00534312       0.93155994      -2.13167435       0.00000000
Si      -0.68592303      -2.15099676       0.66078226       0.00000000
Si       0.43440543       1.65788217       1.64501018       0.00000000
Si      -1.87274727       1.39965309       0.58431334       0.00000000
Si       2.31365241      -0.24562062      -0.66673061       0.00000000
Si      -0.58044528      -1.31828454      -3.10297407       0.00000000
Si      -1.62168579      -2.82973590      -1.50995176       0.00000000
Si       1.39308822      -2.97175212       1.51638147       0.00000000
Si       0.57529764       0.31412007       3.59998768       0.00000000
Si       2.75266791      -2.55313170      -0.38296351       0.00000000
