10
Lattice="16.28999089631971 0.0 0.0 0.0 16.28999089631971 0.0 0.0 0.0 34.383488856416385" Properties=species:S:1:pos:R:3:initial_magmoms:R:1 pbc="T T T"
Si      -1.29746766       1.30557834       1.41219944       0.00000000
Si      -1.49627952      -1.11347037      -1.46826661       0.00000000
Si       1.39155370       1.24877511      -1.47273646       0.00000000
Si       1.42569754      -1.41289686       1.36981489       0.00000000
Si       0.25577743      -2.00435418      -2.95329032       0.00000000
Si      -2.60738784      -2.72406267      -0.05681875       0.00000000
Si      -3.00445659       2.28564990       0.17815815       0.00000000
Si      -2.63905560      -0.06810849       2.75504047       0.00000000
Si       0.06912987       2.65896783       2.74960788       0.00000000
Si       2.21372629      -0.35673471      -3.13177511       0.00000000
