10
Lattice="16.28999089631971 0.0 0.0 0.0 16.28999089631971 0.0 0.0 0.0 34.383488856416385" Properties=species:S:1:pos:R:3:initial_magmoms:R:1 pbc="T T T"
Si      -1.18951209      -1.91412387       0.55151147       0.00000000
Si       0.36222444       1.50244299       1.81795922       0.00000000
Si       1.99502001       0.15978861      -1.44606720       0.00000000
Si      -2.31298452      -0.04720842      -1.28305499       0.00000000
Si       0.30902130       3.04140816      -0.02534065       0.00000000
Si      -1.76389749       2.31251211      -1.03611263       0.00000000
Si      -0.52211079      -3.23038845      -1.39789590       0.00000000
Si       2.09640897       0.24298164       2.91554957       0.00000000
Si       3.21768225      -1.85562648      -1.14428315       0.00000000
Si      -0.55449531      -2.66947488       2.86875361       0.00000000
