10
Lattice="16.28999089631971 0.0 0.0 0.0 16.28999089631971 0.0 0.0 0.0 34.383488856416385" Properties=species:S:1:pos:R:3:initial_magmoms:R:1 pbc="T T T"
Si      -1.35550882      -1.35629118       1.35715145       0.00000000
Si       1.35700587      -1.35730116      -1.35694515       0.00000000
Si      -1.35804680       1.35728628      -1.35763282       0.00000000
Si       1.35860229       1.36162920       1.35814857       0.00000000
Si       0.00158013       2.71261591       2.71334016       0.00000000
Si      -0.00254124       2.71426120      -2.71474988       0.00000000
Si       2.71454931       2.71483135       0.00034384       0.00000000
Si       2.71427238      -2.71518669       0.00027507       0.00000000
Si       2.71640637      -0.00076612      -2.71402783       0.00000000
Si      -2.71552640      -2.71508895       0.00041260       0.00000000
