10
Lattice="16.28999089631971 0.0 0.0 0.0 16.28999089631971 0.0 0.0 0.0 34.383488856416385" Properties=species:S:1:pos:R:3:initial_magmoms:R:1 pbc="T T T"
Si      -1.35720135      -1.35449721       1.35694515       0.00000000
Si       1.35723393      -1.35405738      -1.35794227       0.00000000
Si       1.35736425       1.35964063       1.35646378       0.00000000
Si      -1.35677781       1.36176648      -1.36371870       0.00000000
Si       0.00083079      -2.71246419       2.71461235       0.00000000
Si       2.71461447      -2.71316466      -0.00127219       0.00000000
Si      -2.71463076       0.00232042       2.71437166       0.00000000
Si       2.71529865       0.00239424       2.71437166       0.00000000
Si      -2.71707426      -2.71292031       0.00044699       0.00000000
Si      -2.71394658       2.71781450      -0.00061890       0.00000000
