10
Lattice="16.28999089631971 0.0 0.0 0.0 16.28999089631971 0.0 0.0 0.0 34.383488856416385" Properties=species:S:1:pos:R:3:initial_magmoms:R:1 pbc="T T T"
Si       1.35119034       1.34242632      -1.37695635       0.00000000
Si       1.47724236      -1.29484323       1.32596561       0.00000000
Si      -1.36273995      -1.37279088      -1.37245211       0.00000000
Si      -1.34227971       1.41679017       1.46336210       0.00000000
Si       0.17586684      -2.59253721       2.77615883       0.00000000
Si       2.71920825       2.67550218      -0.01567888       0.00000000
Si      -2.72743470       2.70322776      -0.00244123       0.00000000
Si      -0.00201996       2.70130554      -2.73324821       0.00000000
Si      -2.71738377      -2.72510523      -0.00567328       0.00000000
Si       2.71186146      -0.01285281      -2.73421095       0.00000000
