10
Lattice="16.28999089631971 0.0 0.0 0.0 16.28999089631971 0.0 0.0 0.0 34.383488856416385" Properties=species:S:1:pos:R:3:initial_magmoms:R:1 pbc="T T T"
Si      -1.35444834       1.35809730      -1.35667008       0.00000000
Si       1.36129014      -1.35428544      -1.35474460       0.00000000
Si      -1.33757190      -1.35154872       1.39363235       0.00000000
Si       1.35086454       1.36073628       1.37417128       0.00000000
Si      -2.51442666       0.22551876       2.78736785       0.00000000
Si      -2.71389771       2.71238778       0.00505438       0.00000000
Si      -2.71280628       0.00050499      -2.71406221       0.00000000
Si       0.00223173      -2.71391400      -2.71382153       0.00000000
Si       0.00198738       2.71571314      -2.71399344       0.00000000
Si       2.71555929      -2.71528236       0.00416040       0.00000000
