10
Lattice="16.28999089631971 0.0 0.0 0.0 16.28999089631971 0.0 0.0 0.0 34.383488856416385" Properties=species:S:1:pos:R:3:initial_magmoms:R:1 pbc="T T T"
Si       1.26395739      -1.98210204       0.12243967       0.00000000
Si      -0.60396804       0.59518773      -2.20532382       0.00000000
Si      -1.96483464      -0.89147025       1.05062247       0.00000000
Si       1.16398566       1.94171913       0.87715767       0.00000000
Si      -0.81023202       2.73544679       2.06899321       0.00000000
Si      -2.51199945       1.05551055       2.26157524       0.00000000
Si       2.62694169      -1.42019478       2.08790414       0.00000000
Si       0.47452770       2.65618943      -2.60169691       0.00000000
Si      -0.27883593      -3.77308980      -0.37010408       0.00000000
Si       0.02505402      -1.30038183      -3.60242891       0.00000000
