10
Lattice="16.28999089631971 0.0 0.0 0.0 16.28999089631971 0.0 0.0 0.0 34.383488856416385" Properties=species:S:1:pos:R:3:initial_magmoms:R:1 pbc="T T T"
Si      -1.35988920      -1.32937151       1.35697953       0.00000000
Si      -1.35314514       1.35891180      -1.35677323       0.00000000
Si       1.35974259      -1.35519768      -1.35656693       0.00000000
Si       1.35449721       1.38381921       1.38816537       0.00000000
Si       0.16408917      -2.54328765       2.59643623       0.00000000
Si      -2.70912474      -2.71689004       0.00395410       0.00000000
Si      -2.71264338       0.00148239      -2.71371837       0.00000000
Si      -2.71125873       2.71544526       0.00426356       0.00000000
Si       0.00190593      -2.71361207      -2.71368399       0.00000000
Si       2.71288773       2.71746522       0.00292260       0.00000000
