10
Lattice="16.28999089631971 0.0 0.0 0.0 16.28999089631971 0.0 0.0 0.0 34.383488856416385" Properties=species:S:1:pos:R:3:initial_magmoms:R:1 pbc="T T T"
Si       1.46854417       0.36338429      -1.77291683       0.00000000
Si      -2.06944902       0.94865304       0.55082380       0.00000000
Si       1.00813923      -0.17283527       2.16203499       0.00000000
Si      -0.83069226      -2.18191422      -0.61120124       0.00000000
Si       2.57606380      -1.70937390      -1.51631271       0.00000000
Si      -2.21534226      -0.05330902       2.64484821       0.00000000
Si      -0.63164475      -1.72709742       3.01883763       0.00000000
Si      -0.31361508       0.58711766      -3.47517554       0.00000000
Si      -0.45802593      -3.35287200       1.37461827       0.00000000
Si       0.81767655       1.92968896       3.16606781       0.00000000
