10
Lattice="16.28999089631971 0.0 0.0 0.0 16.28999089631971 0.0 0.0 0.0 34.383488856416385" Properties=species:S:1:pos:R:3:initial_magmoms:R:1 pbc="T T T"
Si      -2.28843549       0.23131637       0.16156810       0.00000000
Si       0.14589324       1.00196206      -2.09402441       0.00000000
Si       1.58369751      -1.67378840       0.37398942       0.00000000
Si       1.03685850       1.43358516       1.55045553       0.00000000
Si       3.22348149      -0.11952625      -0.48281322       0.00000000
Si      -2.14835778       2.19211272       1.42777517       0.00000000
Si       2.21534226       0.05330902      -2.64484821       0.00000000
Si       1.09094130       0.01751501       3.41239126       0.00000000
Si       3.03301881       1.98299799       0.52121960       0.00000000
Si      -1.84687875       0.49474848      -3.30518348       0.00000000
