10
Lattice="16.28999089631971 0.0 0.0 0.0 16.28999089631971 0.0 0.0 0.0 34.383488856416385" Properties=species:S:1:pos:R:3:initial_magmoms:R:1 pbc="T T T"
Si       1.35415512       1.34522820       1.37829730       0.00000000
Si      -0.65298465       1.83734910      -1.32668422       0.00000000
Si      -1.37777562      -1.35514881       1.36695075       0.00000000
Si       1.38582288      -1.31072598      -1.43356192       0.00000000
Si       0.33280470       1.38061008      -3.44362665       0.00000000
Si       2.49693120       0.29986632      -2.84500978       0.00000000
Si      -2.70223407       2.71114470      -0.01981865       0.00000000
Si       2.69574306       2.71891503       0.03545627       0.00000000
Si      -2.71992501      -2.69887833      -0.01184512       0.00000000
Si       2.71592148      -2.71415835      -0.01653159       0.00000000
