10
Lattice="16.28999089631971 0.0 0.0 0.0 16.28999089631971 0.0 0.0 0.0 34.383488856416385" Properties=species:S:1:pos:R:3:initial_magmoms:R:1 pbc="T T T"
Si       1.50411760       1.80191835      -0.51375838       0.00000000
Si       0.74664238      -1.97312625      -1.30203468       0.00000000
Si      -1.98835155       0.84799224      -1.25537626       0.00000000
Si       0.12500783       0.30032244       2.54248850       0.00000000
Si       2.03541595      -2.70324405       0.52166658       0.00000000
Si      -0.69033371       2.01481236      -2.81171137       0.00000000
Si       2.01427153      -0.77485014      -2.84729830       0.00000000
Si      -0.56854543      -1.86794172       3.11002269       0.00000000
Si       3.32853244       0.81735075      -1.64752017       0.00000000
Si      -3.29055786       2.25767997       0.16885741       0.00000000
