10
Lattice="16.28999089631971 0.0 0.0 0.0 16.28999089631971 0.0 0.0 0.0 34.383488856416385" Properties=species:S:1:pos:R:3:initial_magmoms:R:1 pbc="T T T"
Si       1.28581857       1.43255889      -1.39308221       0.00000000
Si      -1.48159179       1.46829915       1.21442551       0.00000000
Si      -1.44386415      -1.35136953      -1.56070181       0.00000000
Si       0.96062130      -1.09882566       2.09931947       0.00000000
Si      -1.25330373      -1.98464328       2.38944751       0.00000000
Si      -2.09170116      -3.05371525       0.00728930       0.00000000
Si      -2.52283230      -0.04315221       2.80744782       0.00000000
Si       2.58258402      -0.05375700      -2.94945171       0.00000000
Si      -0.11811879       2.63173095      -2.95815073       0.00000000
Si      -2.92737816       2.69773803      -0.13278911       0.00000000
