10
Lattice="16.28999089631971 0.0 0.0 0.0 16.28999089631971 0.0 0.0 0.0 34.383488856416385" Properties=species:S:1:pos:R:3:initial_magmoms:R:1 pbc="T T T"
Si       0.43901550      -2.30751108       0.28376709       0.00000000
Si       1.73747511       1.35443205       0.95372975       0.00000000
Si      -2.31365241       0.24562062       0.66673061       0.00000000
Si       0.04443912       1.82765655      -2.17675113       0.00000000
Si      -2.30830929       1.17718056      -1.46494374       0.00000000
Si       3.46000482      -0.12970098       0.19687997       0.00000000
Si       1.25064846       3.24342045      -0.36202396       0.00000000
Si      -1.87924698       1.90350279       2.31174078       0.00000000
Si      -0.92056419      -2.72613150       2.18311208       0.00000000
Si       2.76645155      -2.29796514       0.76441415       0.00000000
