10
Lattice="16.28999089631971 0.0 0.0 0.0 16.28999089631971 0.0 0.0 0.0 34.383488856416385" Properties=species:S:1:pos:R:3:initial_magmoms:R:1 pbc="T T T"
Si       1.90456164       1.10874627      -0.70472438       0.00000000
Si       0.64655010      -2.16472923       0.63774531       0.00000000
Si      -1.45860660       0.74415978      -1.70449365       0.00000000
Si       0.01822851       0.40775499       2.35110990       0.00000000
Si       1.43267292      -1.47605319       2.79190647       0.00000000
Si       1.03198779       3.23405370      -1.33940956       0.00000000
Si       3.18385185       1.41185430       1.24265437       0.00000000
Si       2.51354604      -0.07185519      -2.73118520       0.00000000
Si      -1.26897471      -3.45608640       0.71751505       0.00000000
Si      -0.18722097       2.23192548      -3.08908313       0.00000000
