10
Lattice="16.28999089631971 0.0 0.0 0.0 16.28999089631971 0.0 0.0 0.0 34.383488856416385" Properties=species:S:1:pos:R:3:initial_magmoms:R:1 pbc="T T T"
Si      -0.98578935       0.45673902       2.11694243       0.00000000
Si      -0.57567231      -2.01116340      -1.23801259       0.00000000
Si       2.16412650      -1.08074376       0.59861688       0.00000000
Si      -1.00098792       2.11836789      -1.13740645       0.00000000
Si       0.65594943       2.31837651       2.24504163       0.00000000
Si       1.05301818      -2.69133606       2.01006474       0.00000000
Si      -0.33280470      -1.38061008       3.44362665       0.00000000
Si      -2.88297162      -1.82622303      -1.89198692       0.00000000
Si       0.91264725      -2.10119823      -3.26492039       0.00000000
Si       0.60440787       3.86011098      -0.83692897       0.00000000
