10
Lattice="16.28999089631971 0.0 0.0 0.0 16.28999089631971 0.0 0.0 0.0 34.383488856416385" Properties=species:S:1:pos:R:3:initial_magmoms:R:1 pbc="T T T"
Si       0.99505836      -1.72563228      -1.21893318       0.00000000
Si       1.35459495       1.36003581       1.35120998       0.00000000
Si      -1.37428956      -1.34780202       1.35255093       0.00000000
Si      -1.28738241       1.31659038      -1.46479246       0.00000000
Si       2.52446130      -0.61678827      -2.65351663       0.00000000
Si       2.70204729      -2.70570384       0.01510811       0.00000000
Si      -2.69592984      -2.71347417      -0.04016681       0.00000000
Si       2.72212416       2.68965819      -0.00288134       0.00000000
Si       2.70813881       0.00092853       2.70746745       0.00000000
Si      -0.00527796      -2.71239903       2.70571389       0.00000000
