10
Lattice="16.28999089631971 0.0 0.0 0.0 16.28999089631971 0.0 0.0 0.0 34.383488856416385" Properties=species:S:1:pos:R:3:initial_magmoms:R:1 pbc="T T T"
Si      -1.24727643       1.44761085       1.34112873       0.00000000
Si       1.34267448       1.36798533      -1.35625748       0.00000000
Si      -1.36881612      -1.34543997      -1.35928322       0.00000000
Si       1.45627519      -1.21231809       1.46920730       0.00000000
Si       0.55900764       2.36286450       2.68456116       0.00000000
Si      -2.54865195       0.14991687       2.79132195       0.00000000
Si       2.45701811       0.56259144       2.83547038       0.00000000
Si       2.70764302      -2.69811270       0.02534065       0.00000000
Si      -0.01216863      -2.70014895      -2.71901343       0.00000000
Si       2.70265014       0.01435149      -2.71818823       0.00000000
