10
Lattice="16.28999089631971 0.0 0.0 0.0 16.28999089631971 0.0 0.0 0.0 34.383488856416385" Properties=species:S:1:pos:R:3:initial_magmoms:R:1 pbc="T T T"
Si       1.30137552       1.29769398      -1.45019322       0.00000000
Si       1.40470299      -1.11936735       1.65845413       0.00000000
Si      -1.49136579      -1.44425511      -1.40442877       0.00000000
Si      -1.04982534       1.13399577       2.39322970       0.00000000
Si      -0.94804542      -1.76984334       2.37026151       0.00000000
Si      -2.47041108       2.55769290       0.41882551       0.00000000
Si       2.70690930      -2.52905508       0.23422046       0.00000000
Si       2.54865195      -0.14991687      -2.79132195       0.00000000
Si      -0.17586684       2.59253721      -2.77615883       0.00000000
Si       3.10765959       2.21294763      -0.10676079       0.00000000
