10
Lattice="16.28999089631971 0.0 0.0 0.0 16.28999089631971 0.0 0.0 0.0 34.383488856416385" Properties=species:S:1:pos:R:3:initial_magmoms:R:1 pbc="T T T"
Si       1.94948946       0.03064149      -1.31434398       0.00000000
Si      -1.22266224       2.01541509      -0.30178405       0.00000000
Si      -1.43262405      -1.92238290      -0.15637619       0.00000000
Si       0.60325128       0.44761662       2.47743491       0.00000000
Si       0.32013108       3.80640285       0.19075970       0.00000000
Si      -1.32695082      -2.79244809      -2.34832483       0.00000000
Si      -3.21768225       1.85562648       1.14428315       0.00000000
Si       3.36393387      -1.85316669      -0.87354741       0.00000000
Si      -3.73979304      -1.37476197      -0.25361276       0.00000000
Si       3.44038284       1.82884572      -0.87478521       0.00000000
