10
Lattice="16.28999089631971 0.0 0.0 0.0 16.28999089631971 0.0 0.0 0.0 34.383488856416385" Properties=species:S:1:pos:R:3:initial_magmoms:R:1 pbc="T T T"
Si       0.52535250      -0.32842269       2.25645210       0.00000000
Si      -1.98527859       1.47566223       0.28775558       0.00000000
Si       1.58392135       1.44627507      -1.36306541       0.00000000
Si       0.11688075      -2.21662917      -1.29392018       0.00000000
Si       1.01981397      -0.48785292      -2.59282596       0.00000000
Si      -0.59888556       3.47346036       0.70854095       0.00000000
Si       0.09661599       3.34204404      -1.54258171       0.00000000
Si       2.29079332       1.17696879       2.66740379       0.00000000
Si      -3.02847390       0.48373155       2.16629854       0.00000000
Si      -1.11596274       0.70442847       3.57251526       0.00000000
