10
Lattice="16.28999089631971 0.0 0.0 0.0 16.28999089631971 0.0 0.0 0.0 34.383488856416385" Properties=species:S:1:pos:R:3:initial_magmoms:R:1 pbc="T T T"
Si      -0.17361882       1.62577458       1.64421936       0.00000000
Si      -1.54258155      -1.73237634       0.00429794       0.00000000
Si      -0.37266633       1.17095778      -1.98581951       0.00000000
Si       2.28183708      -0.50450130       0.39389747       0.00000000
Si       1.26864891       0.13810662      -3.30188266       0.00000000
Si       1.46616516       3.18003673       0.78741672       0.00000000
Si      -0.58414311      -3.26342457       1.51531558       0.00000000
Si       0.45802593       3.35287200      -1.37461827       0.00000000
Si       2.59035828      -2.57499288      -0.59713838       0.00000000
Si       2.51424814      -0.91870713       2.69886470       0.00000000
