10
Lattice="16.28999089631971 0.0 0.0 0.0 16.28999089631971 0.0 0.0 0.0 34.383488856416385" Properties=species:S:1:pos:R:3:initial_magmoms:R:1 pbc="T T T"
Si      -0.15472242       2.30087032       0.00429794       0.00000000
Si      -1.09480203      -0.50316552       1.97108415       0.00000000
Si       0.52580066      -1.28005191      -2.01583631       0.00000000
Si      -2.61086346      -1.41791418       0.44107164       0.00000000
Si       2.06556290       0.66779226      -2.33814732       0.00000000
Si       0.45810333       2.39154372      -2.22182791       0.00000000
Si      -1.90853640      -2.36565009      -1.62090734       0.00000000
Si       1.77048747       2.60564319       1.60542930       0.00000000
Si       0.39560265      -1.67104449       3.29880332       0.00000000
Si       1.49078817      -3.28860891       1.89487311       0.00000000
