10
Lattice="16.28999089631971 0.0 0.0 0.0 16.28999089631971 0.0 0.0 0.0 34.383488856416385" Properties=species:S:1:pos:R:3:initial_magmoms:R:1 pbc="T T T"
Si      -1.34492032      -1.34175843       1.36915817       0.00000000
Si       1.37005416       1.36989126       1.36633872       0.00000000
Si      -1.59625547       1.08264969      -1.39016993       0.00000000
Si       1.35967743      -1.32326928      -1.46736091       0.00000000
Si       0.23275152       1.87525593      -2.73387540       0.00000000
Si       2.18067714       0.52191531      -2.75911290       0.00000000
Si      -2.69144099       2.70021411       0.01376028       0.00000000
Si      -2.71151786      -2.69514792       0.03174973       0.00000000
Si       0.00913869      -2.70229923       2.72575948       0.00000000
Si       2.73404844      -2.69417052      -0.02139342       0.00000000
