10
Lattice="16.28999089631971 0.0 0.0 0.0 16.28999089631971 0.0 0.0 0.0 34.383488856416385" Properties=species:S:1:pos:R:3:initial_magmoms:R:1 pbc="T T T"
Si      -1.35629783      -1.35580041       1.35639501       0.00000000
Si      -1.35673766       1.35742941      -1.35735775       0.00000000
Si       1.35785467      -1.35842310      -1.35697953       0.00000000
Si       1.35852093       1.35870003       1.35722021       0.00000000
Si       0.00083118      -2.71375110      -2.71120838       0.00000000
Si       2.71435229      -0.00052128      -2.71347769       0.00000000
Si      -0.00021273       2.71326240      -2.71512810       0.00000000
Si      -2.71294532      -0.00109143       2.71612522       0.00000000
Si      -2.71470464      -2.71440270       0.00000000       0.00000000
Si      -2.71437884       2.71476108      -0.00003438       0.00000000
