10
Lattice="16.28999089631971 0.0 0.0 0.0 16.28999089631971 0.0 0.0 0.0 34.383488856416385" Properties=species:S:1:pos:R:3:initial_magmoms:R:1 pbc="T T T"
Si      -1.35726488      -1.35619137       1.35667008       0.00000000
Si       1.35685926       1.35987291       1.35457268       0.00000000
Si       1.35676152      -1.35713619      -1.35794227       0.00000000
Si      -1.35826346       1.35721764      -1.35763282       0.00000000
Si       2.70752832       0.00242721       2.71626275       0.00000000
Si       2.71347417      -0.00174303      -2.71447481       0.00000000
Si       0.00066789       2.71226871       2.71615960       0.00000000
Si       2.71445157       2.71490769      -0.00065329       0.00000000
Si      -0.00143352      -2.71541268      -2.71402783       0.00000000
Si       2.71453302      -2.71495656      -0.00034384       0.00000000
