10
Lattice="16.28999089631971 0.0 0.0 0.0 16.28999089631971 0.0 0.0 0.0 34.383488856416385" Properties=species:S:1:pos:R:3:initial_magmoms:R:1 pbc="T T T"
Si      -1.35722514      -1.35594702       1.35632624       0.00000000
Si       1.35708375      -1.35778779      -1.35711706       0.00000000
Si      -1.35750207       1.35798327      -1.35732336       0.00000000
Si       1.36001758       1.35879777       1.35673884       0.00000000
Si      -0.00183198       2.71269225      -2.71554070       0.00000000
Si      -2.71481745      -2.71513575      -0.00006877       0.00000000
Si       2.71534721      -2.71500543       0.00051575       0.00000000
Si       2.71552640       2.71508895      -0.00041260       0.00000000
Si      -2.71546905       2.71518423      -0.00006877       0.00000000
Si      -2.71789626      -0.00066789       2.71358084       0.00000000
