10
Lattice="16.28999089631971 0.0 0.0 0.0 16.28999089631971 0.0 0.0 0.0 34.383488856416385" Properties=species:S:1:pos:R:3:initial_magmoms:R:1 pbc="T T T"
Si      -0.46514466       2.34088929      -0.22170486       0.00000000
Si      -1.91488950      -1.34511417      -0.60549358       0.00000000
Si       1.78075764      -0.15135039      -1.72739306       0.00000000
Si       0.54478647      -0.68059620       2.33725334       0.00000000
Si       0.89694369      -2.31140439      -2.20518629       0.00000000
Si      -0.62284815      -3.31265295      -0.46820023       0.00000000
Si      -2.55688980       2.22855345       1.00788377       0.00000000
Si       0.46809315       1.44616104       3.30150445       0.00000000
Si       0.82215630       3.21237171       1.63610485       0.00000000
Si      -3.57140983      -1.42586370       1.06946464       0.00000000
