10
Lattice="10.86 0.0 0.0 0.0 10.86 0.0 0.0 0.0 10.86" Properties=species:S:1:pos:R:3:initial_magmoms:R:1 pbc="T T T"
Si      -1.42133508       1.22404146      -1.20897864       0.00000000
Si       1.29366492      -1.49095854      -1.20897864       0.00000000
Si       1.29366492       1.22404146       1.50602136       0.00000000
Si      -0.06383508       2.58154146      -2.56647864       0.00000000
Si       2.65116492      -0.13345854      -2.56647864       0.00000000
Si       2.65116492       2.58154146       0.14852136       0.00000000
Si      -2.77883508      -0.13345854      -2.56647864       0.00000000
Si      -2.81134992       2.57762100       0.23975622       0.00000000
Si      -0.06383508      -2.84845854      -2.56647864       0.00000000
Si      -0.00513678       2.44660596       2.97027516       0.00000000
