10
Lattice="10.86 0.0 0.0 0.0 10.86 0.0 0.0 0.0 10.86" Properties=species:S:1:pos:R:3:initial_magmoms:R:1 pbc="T T T"
Si       1.35144012      -1.32742866      -1.14956358       0.00000000
Si      -1.36355988       1.38757134      -1.14956358       0.00000000
Si      -1.36355988      -1.32742866       1.56543642       0.00000000
Si      -2.42902362       2.68599294       0.26181288       0.00000000
Si      -0.00605988      -2.68492866      -2.50706358       0.00000000
Si       2.70894012       0.03007134      -2.50706358       0.00000000
Si      -2.72105988       0.03007134      -2.50706358       0.00000000
Si      -0.00605988       2.74507134      -2.50706358       0.00000000
Si       2.70894012      -2.68492866       0.20793642       0.00000000
Si      -2.72105988      -2.68492866       0.20793642       0.00000000
