10
Lattice="10.86 0.0 0.0 0.0 10.86 0.0 0.0 0.0 10.86" Properties=species:S:1:pos:R:3:initial_magmoms:R:1 pbc="T T T"
Si       1.37295378       1.17155508      -1.31474418       0.00000000
Si      -1.34204622       1.17155508       1.40025582       0.00000000
Si      -1.34204622      -1.54344492      -1.31474418       0.00000000
Si       0.01545378       2.52905508      -2.67224418       0.00000000
Si      -2.69954622       2.52905508       0.04275582       0.00000000
Si       2.73045378       2.52905508       0.04275582       0.00000000
Si       0.01545378       2.52905508       2.75775582       0.00000000
Si      -2.69954622      -0.18594492      -2.67224418       0.00000000
Si       2.73045378      -0.18594492      -2.67224418       0.00000000
Si      -2.69954622      -0.18594492       2.75775582       0.00000000
