10
Lattice="16.28999089631971 0.0 0.0 0.0 16.28999089631971 0.0 0.0 0.0 34.26581377546328" Properties=species:S:1:pos:R:3:initial_magmoms:R:1 pbc="T T T"
Si      -1.30389721      -1.03703769       1.62025991       0.00000000
Si       0.81060669      -1.74373047      -1.35154725       0.00000000
Si       1.76754645       1.12774041       1.09900806       0.00000000
Si      -1.44835205       0.90184698      -1.67625028       0.00000000
Si       1.13573880       3.29091299       0.38723818       0.00000000
Si      -2.96332109      -0.94850154      -1.76386802       0.00000000
Si      -3.28477166      -1.54569294       0.49130351       0.00000000
Si       1.44801810      -0.67103397      -3.34732642       0.00000000
Si      -0.50251392      -3.24312723       1.90380968       0.00000000
Si       2.58727554      -2.89535202      -0.33189886       0.00000000
