10
Lattice="16.28999089631971 0.0 0.0 0.0 16.28999089631971 0.0 0.0 0.0 34.26581377546328" Properties=species:S:1:pos:R:3:initial_magmoms:R:1 pbc="T T T"
Si       1.42091643      -1.93847742       0.10074155       0.00000000
Si       0.77540400       1.80364413       1.41350471       0.00000000
Si      -1.88423402      -0.91069245       1.27370697       0.00000000
Si       1.14317193       0.75116026      -2.10597809       0.00000000
Si       2.16214401       0.50160168       2.80105850       0.00000000
Si      -0.57138716      -2.23221870       2.79387638       0.00000000
Si       3.22980690      -1.07887041       1.35510888       0.00000000
Si      -3.27839738      -2.18856150      -0.22060343       0.00000000
Si      -3.23301344      -0.83650779      -2.11111797       0.00000000
Si       1.95897513       3.42942686       0.16499722       0.00000000
