10
Lattice="16.28999089631971 0.0 0.0 0.0 16.28999089631971 0.0 0.0 0.0 34.26581377546328" Properties=species:S:1:pos:R:3:initial_magmoms:R:1 pbc="T T T"
Si       1.36013355       1.35581996      -1.39900543       0.00000000
Si      -1.35158130      -1.36629335      -1.40017046       0.00000000
Si      -1.52875134       1.38519083       1.42347123       0.00000000
Si       1.51454646      -1.30140598       1.55374993       0.00000000
Si      -2.69289990      -2.72391999      -0.01644760       0.00000000
Si       2.69762400       2.72431028      -0.01864061       0.00000000
Si      -2.71795392       2.70911171      -0.05670995       0.00000000
Si       2.71370223      -2.71689900      -0.02216999       0.00000000
Si      -2.70967860      -0.00264712      -2.76062683       0.00000000
Si       0.00358380       2.70880220      -2.76319677       0.00000000
