10
Lattice="16.28999089631971 0.0 0.0 0.0 16.28999089631971 0.0 0.0 0.0 34.26581377546328" Properties=species:S:1:pos:R:3:initial_magmoms:R:1 pbc="T T T"
Si       2.27454012      -0.43351992      -0.04543649       0.00000000
Si      -1.32260139      -1.51864569       1.23607139       0.00000000
Si       0.15099201       1.81193344       1.53253938       0.00000000
Si      -0.98240103       0.23922028      -2.16402441       0.00000000
Si       1.94233815      -2.62265157      -0.82645762       0.00000000
Si       1.25100684       0.38421268       3.16242799       0.00000000
Si       2.87248086       1.12842459      -1.69053913       0.00000000
Si      -2.14829262       2.17275694       1.81249123       0.00000000
Si       0.14776659      -1.76433147       3.12411879       0.00000000
Si      -3.10210470       0.01823014       1.82417588       0.00000000
