10
Lattice="16.28999089631971 0.0 0.0 0.0 16.28999089631971 0.0 0.0 0.0 34.26581377546328" Properties=species:S:1:pos:R:3:initial_magmoms:R:1 pbc="T T T"
Si      -1.35681039       1.35715248       1.35689272       0.00000000
Si       1.35713619      -1.35752715       1.35761230       0.00000000
Si       1.35698958       1.35786924      -1.35747524       0.00000000
Si      -1.35798327      -1.35767376      -1.35802349       0.00000000
Si       0.00096111       2.71397916       2.71392250       0.00000000
Si      -2.71479366      -0.00061902       2.71364837       0.00000000
Si      -0.00125433      -2.71639008       2.71224347       0.00000000
Si      -2.71459818       2.71438641       0.00003427       0.00000000
Si       2.71394658       0.00011403       2.71525887       0.00000000
Si       2.71482624       2.71476108       0.00020559       0.00000000
