10
Lattice="16.28999089631971 0.0 0.0 0.0 16.28999089631971 0.0 0.0 0.0 34.26581377546328" Properties=species:S:1:pos:R:3:initial_magmoms:R:1 pbc="T T T"
Si      -1.35617508      -1.35614250      -1.35497383       0.00000000
Si       1.35839052       1.35886293      -1.35463117       0.00000000
Si       1.35654975      -1.35298224       1.36419134       0.00000000
Si      -1.35387819       1.36125756       1.35935986       0.00000000
Si      -2.71326240      -2.71144932       0.00256994       0.00000000
Si      -2.71332756       0.00100998      -2.71268893       0.00000000
Si       0.00198738      -2.71395798      -2.71299732       0.00000000
Si      -2.72153772       0.00030951       2.70648681       0.00000000
Si       0.00125433       2.71639008      -2.71224347       0.00000000
Si      -2.71353933       2.71577106       0.00140490       0.00000000
