10
Lattice="16.28999089631971 0.0 0.0 0.0 16.28999089631971 0.0 0.0 0.0 34.26581377546328" Properties=species:S:1:pos:R:3:initial_magmoms:R:1 pbc="T T T"
Si       0.37295955       0.20706219       2.32401159       0.00000000
Si      -1.62152289      -1.17296145      -1.31008559       0.00000000
Si       1.10227914       1.64985120      -1.35250669       0.00000000
Si      -1.73654658       1.43773911       1.56060309       0.00000000
Si       2.45796552       0.25599735      -2.68513920       0.00000000
Si      -0.26080290      -2.45651571      -2.70117561       0.00000000
Si       2.81435814       2.46044160       0.12774303       0.00000000
Si       1.60422291       2.49968421       2.36650122       0.00000000
Si      -3.35058259      -2.03955687       0.02970848       0.00000000
Si      -2.95456128       0.25770780      -2.68349444       0.00000000
