10
Lattice="16.28999089631971 0.0 0.0 0.0 16.28999089631971 0.0 0.0 0.0 34.26581377546328" Properties=species:S:1:pos:R:3:initial_magmoms:R:1 pbc="T T T"
Si       1.69911216       1.15717644       1.03811767       0.00000000
Si      -0.16293258      -2.26269729       0.71999368       0.00000000
Si       0.75588858      -0.08083098      -2.26980304       0.00000000
Si      -1.69583787       1.63147608       0.83104925       0.00000000
Si       0.60185034       1.38940668       3.10307995       0.00000000
Si      -1.69482789      -1.73084508       2.64984539       0.00000000
Si      -1.71755244      -3.07284786      -0.79599530       0.00000000
Si       3.60119772      -0.02984328       0.25754200       0.00000000
Si       3.11204160       0.56887938      -2.00609319       0.00000000
Si      -1.64618595       3.48058656      -0.69189570       0.00000000
