10
Lattice="16.28999089631971 0.0 0.0 0.0 16.28999089631971 0.0 0.0 0.0 34.26581377546328" Properties=species:S:1:pos:R:3:initial_magmoms:R:1 pbc="T T T"
Si       1.56131505       1.02252330      -1.56608563       0.00000000
Si      -0.91408077      -1.68882437      -1.56779892       0.00000000
Si       2.06889516       0.14131575       1.43193489       0.00000000
Si      -2.05092729       1.07455356       1.35761230       0.00000000
Si      -2.60897219      -2.69495963      -0.23756502       0.00000000
Si      -0.08677683       0.10560807       3.79905290       0.00000000
Si      -2.30819200      -0.37024889      -3.03406818       0.00000000
Si       0.37211247       2.34644418      -3.04626681       0.00000000
Si      -2.71766722       2.76340302      -0.31538273       0.00000000
Si       2.44626930      -2.30002487       2.01387153       0.00000000
