10
Lattice="16.28999089631971 0.0 0.0 0.0 16.28999089631971 0.0 0.0 0.0 34.26581377546328" Properties=species:S:1:pos:R:3:initial_magmoms:R:1 pbc="T T T"
Si      -1.37184606      -1.34622189       1.34370037       0.00000000
Si      -1.35925389       1.35643572      -1.35857174       0.00000000
Si       1.35672894      -1.35868374      -1.35997664       0.00000000
Si       1.35930276       1.35668007       1.38793756       0.00000000
Si      -0.00394218      -2.68237656       2.69350006       0.00000000
Si      -2.73818610      -0.01493793       2.66670418       0.00000000
Si       2.71363707       2.71296918       0.00037692       0.00000000
Si       2.71352304      -0.00074934      -2.71693789       0.00000000
Si      -0.00135207       2.71458189      -2.71662950       0.00000000
Si       2.71700910      -2.71484253      -0.00328952       0.00000000
