10
Lattice="16.28999089631971 0.0 0.0 0.0 16.28999089631971 0.0 0.0 0.0 34.26581377546328" Properties=species:S:1:pos:R:3:initial_magmoms:R:1 pbc="T T T"
Si       2.24795484       0.64975923      -0.08655549       0.00000000
Si      -0.04243545      -2.26426113      -0.72427691       0.00000000
Si      -0.51082182       1.51415550      -1.81249123       0.00000000
Si      -0.87653232       0.16047279       2.31369757       0.00000000
Si      -2.43131508      -2.37733002      -1.13663194       0.00000000
Si      -1.43627301       3.31232715      -0.68679009       0.00000000
Si       0.21080889       3.51619650       1.11528433       0.00000000
Si       2.76977241       0.56718522      -2.38397679       0.00000000
Si       1.52554221      -3.40094475       0.73579023       0.00000000
Si       2.37508200       2.97637848       0.43068725       0.00000000
