10
Lattice="16.28999089631971 0.0 0.0 0.0 16.28999089631971 0.0 0.0 0.0 34.26581377546328" Properties=species:S:1:pos:R:3:initial_magmoms:R:1 pbc="T T T"
Si       2.27134728      -0.13142772       0.42732920       0.00000000
Si       0.11095119       0.46890765      -2.26500582       0.00000000
Si      -0.34696071       1.75928742       1.57701643       0.00000000
Si      -1.64900412      -1.75531266       0.20878172       0.00000000
Si       0.65515122       0.70729551       3.44714279       0.00000000
Si       2.27532204      -0.83362446       2.71858265       0.00000000
Si       1.52389692       3.12430797       1.30127927       0.00000000
Si      -2.67651216       1.88652861       1.86111445       0.00000000
Si      -0.59258133      -3.30830678       1.71079024       0.00000000
Si       3.19909536       2.01622959       0.22204260       0.00000000
