10
Lattice="16.28999089631971 0.0 0.0 0.0 16.28999089631971 0.0 0.0 0.0 34.26581377546328" Properties=species:S:1:pos:R:3:initial_magmoms:R:1 pbc="T T T"
Si       1.05642279      -1.55299412       1.50200852       0.00000000
Si      -0.27947124      -1.02790877      -2.16697127       0.00000000
Si       1.64900412       1.75531266      -0.20878172       0.00000000
Si      -2.13122070       0.85353084      -1.19515799       0.00000000
Si      -1.97570007       1.45083627       1.08262899       0.00000000
Si       0.04790889      -0.63595997       3.42538399       0.00000000
Si       1.75995531       2.22422031      -2.47378754       0.00000000
Si       0.21813939       0.80216847      -3.67216652       0.00000000
Si      -0.10764432      -3.72624695       0.88930116       0.00000000
Si      -2.15018226       0.21206322       3.18219937       0.00000000
