10
Lattice="16.28999089631971 0.0 0.0 0.0 16.28999089631971 0.0 0.0 0.0 34.26581377546328" Properties=species:S:1:pos:R:3:initial_magmoms:R:1 pbc="T T T"
Si       1.74946455       0.97911045      -1.12549555       0.00000000
Si      -1.53780858       1.75128903      -0.39861443       0.00000000
Si      -0.50678190      -2.11945769      -0.93847263       0.00000000
Si       0.13546764      -0.49920705       2.31565072       0.00000000
Si      -2.70487305      -1.27143450      -1.18165725       0.00000000
Si      -3.35515356       0.50095008       0.29879806       0.00000000
Si       2.40376869      -0.08195499       2.66259228       0.00000000
Si       0.08998596      -3.56105006       0.83344785       0.00000000
Si      -0.52786116       3.61266588       0.56586596       0.00000000
Si       0.74735262       2.03110236      -2.99562191       0.00000000
