10
Lattice="16.28999089631971 0.0 0.0 0.0 16.28999089631971 0.0 0.0 0.0 34.26581377546328" Properties=species:S:1:pos:R:3:initial_magmoms:R:1 pbc="T T T"
Si       0.81777429      -0.94081822      -1.95119932       0.00000000
Si       0.86325597       2.12102479      -0.46899646       0.00000000
Si      -2.31765975       0.35407944       0.13062136       0.00000000
Si       0.72959652      -1.62548692       1.57410383       0.00000000
Si       3.13939251      -0.98134774      -1.40017046       0.00000000
Si      -1.40555007      -2.45168314       2.25643936       0.00000000
Si      -2.90051595      -0.61567729       2.17437269       0.00000000
Si       0.22100643       0.50077415      -3.72311981       0.00000000
Si       1.50118866      -3.51201553       0.30249877       0.00000000
Si       0.72778833       2.62023184      -2.78464718       0.00000000
