10
Lattice="16.28999089631971 0.0 0.0 0.0 16.28999089631971 0.0 0.0 0.0 34.26581377546328" Properties=species:S:1:pos:R:3:initial_magmoms:R:1 pbc="T T T"
Si       2.14200468       0.89596629       0.41259489       0.00000000
Si      -0.71470746      -1.77855849       1.45160348       0.00000000
Si      -2.19810744       0.95350257       0.21234537       0.00000000
Si      -0.01510083       0.57658455      -2.39357123       0.00000000
Si      -2.25914607       1.20290247      -2.15723978       0.00000000
Si       3.46432914      -0.31008015      -1.16846490       0.00000000
Si       1.77406245       3.24470736       0.03758962       0.00000000
Si      -2.80627830      -2.56140376       0.76286024       0.00000000
Si       2.73942414       0.34762860       2.72382533       0.00000000
Si      -1.35207000      -0.65441817       3.68234347       0.00000000
