10
Lattice="16.28999089631971 0.0 0.0 0.0 16.28999089631971 0.0 0.0 0.0 34.26581377546328" Properties=species:S:1:pos:R:3:initial_magmoms:R:1 pbc="T T T"
Si       0.76895316       1.70448786       1.48654919       0.00000000
Si       1.84142160      -1.63138811       0.07884568       0.00000000
Si      -1.91705607      -0.79409352       1.62120020       0.00000000
Si       0.28813752       1.05347430      -2.46203436       0.00000000
Si      -0.76747077      -2.17821670      -1.62670189       0.00000000
Si      -2.78754480      -1.59772320      -0.52855047       0.00000000
Si      -1.70030133       2.58639588      -1.90713346       0.00000000
Si       2.70433548       2.47581936       0.25853571       0.00000000
Si       2.02313655       0.49347297       3.04913627       0.00000000
Si      -0.69732603      -2.23160815       3.03605358       0.00000000
