10
Lattice="16.28999089631971 0.0 0.0 0.0 16.28999089631971 0.0 0.0 0.0 34.26581377546328" Properties=species:S:1:pos:R:3:initial_magmoms:R:1 pbc="T T T"
Si      -1.35839052      -1.35886293       1.35463117       0.00000000
Si       1.35681039       1.35764118       1.35764657       0.00000000
Si      -1.35713619       1.35752715      -1.35761230       0.00000000
Si       1.35853713      -1.35821133      -1.35822909       0.00000000
Si      -2.71226871       0.00239463       2.71399103       0.00000000
Si       0.00410508       2.71534752       2.71299732       0.00000000
Si      -2.71394658       2.71467963      -0.00071958       0.00000000
Si      -2.71456560      -2.71500543      -0.00034266       0.00000000
Si      -0.00014661       2.71539639      -2.71508754       0.00000000
Si       2.71559187       2.71503801      -0.00003427       0.00000000
