10
Lattice="16.28999089631971 0.0 0.0 0.0 16.28999089631971 0.0 0.0 0.0 34.26581377546328" Properties=species:S:1:pos:R:3:initial_magmoms:R:1 pbc="T T T"
Si       1.35565380      -1.35610992      -1.36360882       0.00000000
Si      -1.36234899       1.36016613      -1.36216966       0.00000000
Si      -1.38350970      -1.34082990       1.37937110       0.00000000
Si       1.35078309       1.37280717       1.39684668       0.00000000
Si       2.70940167      -2.71265967      -0.00733289       0.00000000
Si       2.70806589       2.71995759      -0.00202168       0.00000000
Si      -2.72100015      -2.70932022      -0.00099371       0.00000000
Si       2.71174743       0.00226431      -2.72084420       0.00000000
Si      -2.71505430       2.71787247      -0.00681890       0.00000000
Si      -0.00337203      -2.71308321      -2.72060434       0.00000000
