10
Lattice="16.28999089631971 0.0 0.0 0.0 16.28999089631971 0.0 0.0 0.0 34.26581377546328" Properties=species:S:1:pos:R:3:initial_magmoms:R:1 pbc="T T T"
Si      -2.22265647      -0.15969087       0.88042631       0.00000000
Si       0.72340632      -2.24259543       0.59821291       0.00000000
Si       0.99294066       2.13190488       0.81086667       0.00000000
Si       0.08193870      -0.50888331      -3.11284533       0.00000000
Si      -2.85141789       1.31300658      -1.07049889       0.00000000
Si      -2.51519229      -2.50098741       0.68329497       0.00000000
Si      -1.95815574       0.64941714       3.24538557       0.00000000
Si       3.05295777      -2.36983662       0.31411489       0.00000000
Si      -1.64128266       1.27376397      -3.30925708       0.00000000
Si      -0.39441348       3.92782851      -0.03512248       0.00000000
