10
Lattice="16.28999089631971 0.0 0.0 0.0 16.28999089631971 0.0 0.0 0.0 34.26581377546328" Properties=species:S:1:pos:R:3:initial_magmoms:R:1 pbc="T T T"
Si       1.87085763       1.36502055      -0.27573716       0.00000000
Si      -2.32955145       0.12724119       0.28409802       0.00000000
Si       1.00211193      -1.05199191       1.87012636       0.00000000
Si       0.34696071      -1.75928742      -1.57701643       0.00000000
Si       2.61830799      -1.89071514      -1.14968723       0.00000000
Si      -2.28516120      -0.27981333       2.59700748       0.00000000
Si       2.00593431       0.82319886       2.81860462       0.00000000
Si       0.57453201       2.64751596       2.46796235       0.00000000
Si      -0.74735262      -2.03110236       2.99562191       0.00000000
Si       3.54605607       0.25694217      -1.35497383       0.00000000
