10
Lattice="16.28999089631971 0.0 0.0 0.0 16.28999089631971 0.0 0.0 0.0 34.26581377546328" Properties=species:S:1:pos:R:3:initial_magmoms:R:1 pbc="T T T"
Si      -1.38735414       1.79592363      -0.84598915       0.00000000
Si       0.19372068       0.62582922       2.35491937       0.00000000
Si       2.07945108       0.60468480      -1.14937883       0.00000000
Si      -0.99294066      -2.13190488      -0.81086667       0.00000000
Si      -0.78296256      -1.19720097       3.42956442       0.00000000
Si       2.63454912      -1.85422554       1.97121057       0.00000000
Si       3.69996399      -0.87878034      -0.10098141       0.00000000
Si      -3.58730235       1.16910072      -0.51583785       0.00000000
Si       2.36843568       2.94656778      -0.52471270       0.00000000
Si      -0.64420434       2.90264994       2.53159400       0.00000000
