10
Lattice="16.28999089631971 0.0 0.0 0.0 16.28999089631971 0.0 0.0 0.0 34.26581377546328" Properties=species:S:1:pos:R:3:initial_magmoms:R:1 pbc="T T T"
Si      -1.33903800      -1.34599383      -1.36490750       0.00000000
Si      -1.35360126       1.35887007       1.35939412       0.00000000
Si       1.36094805      -1.35705474       1.35836615       0.00000000
Si       1.37200896       1.35254241      -1.38903407       0.00000000
Si       0.08518041      -2.63375091      -2.78521942       0.00000000
Si      -2.70842427       2.71454346       0.00140490       0.00000000
Si      -2.71187775       0.00123804       2.71618404       0.00000000
Si      -2.71498914      -2.71350675      -0.00078811       0.00000000
Si       0.00265527      -2.71388142       2.71669803       0.00000000
Si      -2.61908991       0.04136031      -2.80907872       0.00000000
