10
Lattice="16.28999089631971 0.0 0.0 0.0 16.28999089631971 0.0 0.0 0.0 34.26581377546328" Properties=species:S:1:pos:R:3:initial_magmoms:R:1 pbc="T T T"
Si      -0.65384802      -0.57966336      -2.25380813       0.00000000
Si      -2.07089883      -0.74363850       1.07832623       0.00000000
Si       0.51730524       1.45088514      -1.92680929       0.00000000
Si       1.76248026      -1.73781720       0.06341543       0.00000000
Si       0.70125192       2.10882195       1.15713079       0.00000000
Si       1.98130383       0.72146781       2.60130201       0.00000000
Si      -0.75368943      -1.99987443       2.60956351       0.00000000
Si       0.63684126      -3.34717146       1.28919474       0.00000000
Si       3.40552224      -0.56628927       1.18099009       0.00000000
Si       0.81647109      -2.44670913      -2.73692211       0.00000000
