10
Lattice="16.28999089631971 0.0 0.0 0.0 16.28999089631971 0.0 0.0 0.0 34.26581377546328" Properties=species:S:1:pos:R:3:initial_magmoms:R:1 pbc="T T T"
Si       1.35423657      -1.35576783      -1.35966825       0.00000000
Si      -1.35778779      -1.35739683       1.35733817       0.00000000
Si       1.35734796       1.35897696       1.35730391       0.00000000
Si      -1.35770634       1.35876519      -1.35994238       0.00000000
Si      -0.00480555      -2.70959715      -2.71552614       0.00000000
Si       2.71419093      -2.71313208       0.00010280       0.00000000
Si      -0.00037467      -2.71453302       2.71488194       0.00000000
Si       2.71528236       0.00027693       2.71488194       0.00000000
Si      -2.71524978       0.00079821       2.71519034       0.00000000
Si       0.00003258       2.71554806       2.71501901       0.00000000
