10
Lattice="16.28999089631971 0.0 0.0 0.0 16.28999089631971 0.0 0.0 0.0 34.26581377546328" Properties=species:S:1:pos:R:3:initial_magmoms:R:1 pbc="T T T"
Si       1.35321030      -1.35555606      -1.36079902       0.00000000
Si      -1.36008468       1.36053170      -1.35836615       0.00000000
Si      -1.36743147      -1.35109260       1.37906271       0.00000000
Si       1.36207206       1.36777586       1.36902282       0.00000000
Si      -0.11359017       2.63584322       2.75641213       0.00000000
Si       2.71349046      -2.71358820      -0.00397484       0.00000000
Si       2.70940167       2.71828691      -0.00411190       0.00000000
Si       2.71148679       0.00263701      -2.71690363       0.00000000
Si      -0.00288333      -2.71226871      -2.71724629       0.00000000
Si       0.07138278      -2.69586468       2.73297430       0.00000000
