10
Lattice="16.28999089631971 0.0 0.0 0.0 16.28999089631971 0.0 0.0 0.0 34.26581377546328" Properties=species:S:1:pos:R:3:initial_magmoms:R:1 pbc="T T T"
Si      -1.71810630       1.60083459      -0.45097263       0.00000000
Si       0.73300113       0.35269479       2.26233309       0.00000000
Si      -0.28898460      -2.34188298      -0.62466613       0.00000000
Si       1.39043295       1.19277009      -1.89109705       0.00000000
Si      -3.53142765       0.84035223       0.89224802       0.00000000
Si      -2.36843568      -2.94656778       0.52471270       0.00000000
Si      -0.55403919       3.77408742       0.16173473       0.00000000
Si       2.07948366       2.27649492       2.38843135       0.00000000
Si       1.75404204      -1.64067993       3.07505011       0.00000000
Si      -3.75578982      -1.15064415      -0.32127645       0.00000000
