10
Lattice="16.28999089631971 0.0 0.0 0.0 16.28999089631971 0.0 0.0 0.0 34.26581377546328" Properties=species:S:1:pos:R:3:initial_magmoms:R:1 pbc="T T T"
Si       2.17352583       0.76650966      -0.18085507       0.00000000
Si      -0.28012284      -1.95028767       1.30535691       0.00000000
Si      -0.77159214       1.88652861       1.27160506       0.00000000
Si      -0.73120923       0.21436011      -2.29670172       0.00000000
Si       1.63820385       2.53066779      -1.70266924       0.00000000
Si      -0.68341437       2.57119731      -2.25369810       0.00000000
Si      -2.90673873       1.06033239       1.95394059       0.00000000
Si       3.15379287       0.27363942       1.94760141       0.00000000
Si       0.73282194      -3.69553311       0.11472201       0.00000000
Si      -2.55179592      -2.52012816       1.16750546       0.00000000
