10
Lattice="16.28999089631971 0.0 0.0 0.0 16.28999089631971 0.0 0.0 0.0 34.26581377546328" Properties=species:S:1:pos:R:3:initial_magmoms:R:1 pbc="T T T"
Si      -1.35742924       1.35725022       1.35672139       0.00000000
Si       1.35777964       1.35721764      -1.35648153       0.00000000
Si      -1.35780384      -1.35617508      -1.35798922       0.00000000
Si       1.35760046      -1.35782037       1.35668712       0.00000000
Si       0.00232458       2.70951570      -2.71683510       0.00000000
Si       2.71217911       0.00275301      -2.71628684       0.00000000
Si      -2.71508592       0.00117288      -2.71351131       0.00000000
Si       2.71506245      -0.00037467       2.71371690       0.00000000
Si      -2.71446690       2.71435383      -0.00030839       0.00000000
Si       0.00090247       2.71453302       2.71477915       0.00000000
