10
Lattice="16.28999089631971 0.0 0.0 0.0 16.28999089631971 0.0 0.0 0.0 34.26581377546328" Properties=species:S:1:pos:R:3:initial_magmoms:R:1 pbc="T T T"
Si      -1.74946455      -0.97911045       1.12549555       0.00000000
Si       1.00382238       1.87519077       0.94847826       0.00000000
Si       1.62017082      -1.54091997      -0.72856014       0.00000000
Si      -1.00211193       1.05199191      -1.87012636       0.00000000
Si       0.86874570       2.41701246      -2.14586352       0.00000000
Si       2.92920264       1.64048445      -0.31555406       0.00000000
Si      -3.28727313       0.77217858       0.72688111       0.00000000
Si       0.91201194       1.15256637       3.12973838       0.00000000
Si       1.61619606      -0.83872323      -3.01981359       0.00000000
Si      -0.65515122      -0.70729551      -3.44714279       0.00000000
