10
Lattice="16.28999089631971 0.0 0.0 0.0 16.28999089631971 0.0 0.0 0.0 34.26581377546328" Properties=species:S:1:pos:R:3:initial_magmoms:R:1 pbc="T T T"
Si       1.34460429       1.35591444      -1.36706967       0.00000000
Si      -1.33134521       1.27894419       1.45917623       0.00000000
Si      -1.37092960      -1.35669636      -1.36395148       0.00000000
Si       1.33303839      -1.43066925       1.37340885       0.00000000
Si      -2.10943675      -0.61652763       2.78050101       0.00000000
Si      -0.39602130      -2.29726467       2.71320292       0.00000000
Si       2.69375838      -2.71422351      -0.01768117       0.00000000
Si       2.68893654       2.72829807      -0.01881194       0.00000000
Si       2.70175677       0.00123804      -2.72276308       0.00000000
Si      -0.01261009      -2.71381626      -2.72252322       0.00000000
