10
Lattice="16.28999089631971 0.0 0.0 0.0 16.28999089631971 0.0 0.0 0.0 34.26581377546328" Properties=species:S:1:pos:R:3:initial_magmoms:R:1 pbc="T T T"
Si      -1.35280305       1.35555606      -1.36175847       0.00000000
Si       1.36071999      -1.35995436      -1.36042210       0.00000000
Si       1.34817669       1.34833959       1.39557884       0.00000000
Si      -1.35728280      -1.34715042       1.39886836       0.00000000
Si      -2.71358820       2.71160082      -0.00301539       0.00000000
Si      -2.70806589      -2.71995759       0.00202168       0.00000000
Si      -2.71163340      -0.00239463      -2.71782880       0.00000000
Si       0.00293220       2.71287144      -2.71817146       0.00000000
Si       2.71800279       2.71425609       0.00034266       0.00000000
Si       0.00368154      -2.71769328      -2.71882251       0.00000000
