10
Lattice="16.28999089631971 0.0 0.0 0.0 16.28999089631971 0.0 0.0 0.0 34.26581377546328" Properties=species:S:1:pos:R:3:initial_magmoms:R:1 pbc="T T T"
Si      -1.34817669      -1.34833959      -1.39557884       0.00000000
Si       1.36982610       1.36591650      -1.39523619       0.00000000
Si       1.40955710      -1.43115795       1.42460200       0.00000000
Si      -1.54724049       1.39118229       1.49926725       0.00000000
Si       2.64730649       0.10720449       2.73146661       0.00000000
Si      -2.70545949      -2.69549001       0.00328952       0.00000000
Si      -2.69860140       2.72440476      -0.04601901       0.00000000
Si       2.71115352       2.73593808      -0.02330077       0.00000000
Si       2.74090231      -2.71010214      -0.03457423       0.00000000
Si      -2.70097974       0.00721647      -2.75733731       0.00000000
