10
Lattice="16.28999089631971 0.0 0.0 0.0 16.28999089631971 0.0 0.0 0.0 34.26581377546328" Properties=species:S:1:pos:R:3:initial_magmoms:R:1 pbc="T T T"
Si      -1.35803214       1.35630540      -1.36189553       0.00000000
Si       1.35867301      -1.35987291      -1.36103888       0.00000000
Si       1.34132742       1.37002158       1.37193542       0.00000000
Si      -1.36982610      -1.36591650       1.39523619       0.00000000
Si       2.69367272      -0.01643661       2.66485383       0.00000000
Si      -2.71257822       2.71124244      -0.00551680       0.00000000
Si       2.71208042       2.71494027       0.00075385       0.00000000
Si       0.00042210       2.71308321      -2.71858265       0.00000000
Si      -2.71800279      -2.71425609      -0.00034266       0.00000000
Si      -2.71507059      -0.00138465      -2.71851412       0.00000000
