10
Lattice="16.28999089631971 0.0 0.0 0.0 16.28999089631971 0.0 0.0 0.0 34.26581377546328" Properties=species:S:1:pos:R:3:initial_magmoms:R:1 pbc="T T T"
Si       1.12599738       1.52896311       1.35840041       0.00000000
Si      -1.15136091       1.33322247      -1.54528627       0.00000000
Si      -1.67702292      -0.89542872       1.57290453       0.00000000
Si       1.54724049      -1.39118229      -1.49926725       0.00000000
Si      -2.43761931       2.70370017      -0.16307110       0.00000000
Si       2.65297311       0.11334582       2.52337020       0.00000000
Si      -3.37567896       0.95133600       1.15890474       0.00000000
Si      -2.64556116      -2.69400762       0.08885130       0.00000000
Si      -2.51452440      -0.02792106      -2.89786149       0.00000000
Si       2.80699506       2.67659361       0.00729862       0.00000000
