10
Lattice="16.28999089631971 0.0 0.0 0.0 16.28999089631971 0.0 0.0 0.0 34.26581377546328" Properties=species:S:1:pos:R:3:initial_magmoms:R:1 pbc="T T T"
Si       1.72905970       0.86659542      -1.33979407       0.00000000
Si      -0.86091852      -1.69699446      -1.41034742       0.00000000
Si      -1.71341545       1.68073704       0.06729810       0.00000000
Si       0.66673993      -1.68884946       1.67299503       0.00000000
Si      -1.88475367       1.11334005       2.36643269       0.00000000
Si       0.39602130       2.29726467      -2.71320292       0.00000000
Si      -1.48848313      -2.77182495       1.76157220       0.00000000
Si      -2.33466718      -0.42787314      -2.72502463       0.00000000
Si      -3.53118397       0.98288973      -1.28839532       0.00000000
Si       2.71766722      -2.76340302       0.31538273       0.00000000
