10
Lattice="16.28999089631971 0.0 0.0 0.0 16.28999089631971 0.0 0.0 0.0 34.26581377546328" Properties=species:S:1:pos:R:3:initial_magmoms:R:1 pbc="T T T"
Si       1.87577136       1.38517128      -0.38233816       0.00000000
Si      -1.15756740       0.63289908       1.96651615       0.00000000
Si      -0.98026704       0.49287024      -2.12845648       0.00000000
Si       0.59867379      -2.31847425       0.10440799       0.00000000
Si       0.91336401      -0.35618085      -3.22424355       0.00000000
Si       2.89423845       0.15247440      -2.09528715       0.00000000
Si      -2.47564017       2.39524902       1.13951027       0.00000000
Si       0.85892283       3.38550739      -1.01378893       0.00000000
Si      -3.15379287      -0.27363942      -1.94760141       0.00000000
Si      -0.65827890      -3.16104192       1.87430680       0.00000000
