10
Lattice="16.28999089631971 0.0 0.0 0.0 16.28999089631971 0.0 0.0 0.0 34.26581377546328" Properties=species:S:1:pos:R:3:initial_magmoms:R:1 pbc="T T T"
Si      -0.23465745      -1.80074547      -1.48155182       0.00000000
Si      -1.91646963       1.31111694       0.41218370       0.00000000
Si       1.51557273       1.33405326      -1.22263918       0.00000000
Si       1.11224862      -0.89133993       1.95270702       0.00000000
Si       1.27795050       1.90961154       2.17550347       0.00000000
Si       2.01486123      -2.45988774      -1.31484854       0.00000000
Si       2.96424243       1.80709857       0.57552893       0.00000000
Si       2.94775695      -1.83529656       0.76851410       0.00000000
Si      -3.42713907       0.31657986      -1.15458724       0.00000000
Si      -1.94484681      -3.08306169      -0.43270894       0.00000000
