10
Lattice="16.28999089631971 0.0 0.0 0.0 16.28999089631971 0.0 0.0 0.0 34.26581377546328" Properties=species:S:1:pos:R:3:initial_magmoms:R:1 pbc="T T T"
Si       1.65416709       1.52350011      -0.49829374       0.00000000
Si      -1.68629193       0.10251297       1.59997454       0.00000000
Si       1.37757104      -1.77948702       0.63134797       0.00000000
Si      -1.44866970      -0.47304531      -1.79816811       0.00000000
Si      -2.96424243      -1.80709857      -0.57552893       0.00000000
Si      -1.85199381      -2.69843850       1.37717809       0.00000000
Si       2.68989344       1.69018102       1.60511441       0.00000000
Si       0.34340949       3.35973824      -1.23637978       0.00000000
Si      -0.01648548      -3.64239513       0.19298517       0.00000000
Si       2.91557510       0.53519166      -2.27531984       0.00000000
