10
Lattice="16.28999089631971 0.0 0.0 0.0 16.28999089631971 0.0 0.0 0.0 34.26581377546328" Properties=species:S:1:pos:R:3:initial_magmoms:R:1 pbc="T T T"
Si       1.84233384      -1.41239187       0.43747189       0.00000000
Si      -1.46158767      -1.85950350      -0.17506414       0.00000000
Si      -0.11323179       0.32229765       2.38500477       0.00000000
Si      -0.26490798       0.39998466      -2.37708936       0.00000000
Si      -0.40307976       2.59240689       2.15792509       0.00000000
Si      -2.66926148       0.21773214      -2.34786061       0.00000000
Si       0.91165356      -1.50970833      -3.17212522       0.00000000
Si      -1.08958923      -2.99781612       1.98210711       0.00000000
Si       2.72831436      -1.99528065      -1.66734116       0.00000000
Si      -0.85662594      -2.83260294      -2.35231516       0.00000000
