10
Lattice="16.28999089631971 0.0 0.0 0.0 16.28999089631971 0.0 0.0 0.0 34.26581377546328" Properties=species:S:1:pos:R:3:initial_magmoms:R:1 pbc="T T T"
Si      -1.80975710       1.51848864      -0.26200654       0.00000000
Si       1.84709052       0.95171067       1.21421836       0.00000000
Si       0.99634527      -0.57407589      -2.11990000       0.00000000
Si      -1.11250274      -1.80910224       1.18682625       0.00000000
Si       0.38789748       2.29177494       2.62259891       0.00000000
Si      -2.35282076      -0.42588576       2.63918015       0.00000000
Si       1.28619324      -2.84418513      -1.89282032       0.00000000
Si      -2.32908214       0.82013634      -2.69460655       0.00000000
Si      -1.13953274       3.43515375       1.20380497       0.00000000
Si      -0.21183516       0.59111523      -3.80026218       0.00000000
