10
Lattice="16.28999089631971 0.0 0.0 0.0 16.28999089631971 0.0 0.0 0.0 34.26581377546328" Properties=species:S:1:pos:R:3:initial_magmoms:R:1 pbc="T T T"
Si       1.35545506      -1.35229806       1.36035357       0.00000000
Si      -1.36385811      -1.35264015      -1.35450782       0.00000000
Si      -1.36036325       1.36344042       1.35905147       0.00000000
Si       1.37686012       1.36502055      -1.37108905       0.00000000
Si      -0.15057010       2.50839936      -2.78988300       0.00000000
Si       2.70985453      -2.70676269       0.00054825       0.00000000
Si      -2.71741050      -2.70834282       0.00332379       0.00000000
Si      -0.00232458      -2.70951570       2.71683510       0.00000000
Si       2.71293334       0.00511506       2.71693789       0.00000000
Si      -2.71679148       0.00483813       2.71652670       0.00000000
