10
Lattice="16.28999089631971 0.0 0.0 0.0 16.28999089631971 0.0 0.0 0.0 34.26581377546328" Properties=species:S:1:pos:R:3:initial_magmoms:R:1 pbc="T T T"
Si      -1.35721438       1.35668921      -1.35699552       0.00000000
Si      -1.35686252      -1.35648589       1.35785216       0.00000000
Si       1.35684297      -1.35708862      -1.35730391       0.00000000
Si       1.35755973       1.36001400       1.35792069       0.00000000
Si       0.00104256       2.71310538       2.71011899       0.00000000
Si       2.71474479       0.00051875      -2.71501901       0.00000000
Si       2.71495656      -2.71489270       0.00037692       0.00000000
Si      -2.71481296       2.71507647       0.00037692       0.00000000
Si       0.00089595      -2.71523479      -2.71471061       0.00000000
Si      -0.00083079       2.71455519      -2.71539593       0.00000000
