10
Lattice="16.28999089631971 0.0 0.0 0.0 16.28999089631971 0.0 0.0 0.0 34.26581377546328" Properties=species:S:1:pos:R:3:initial_magmoms:R:1 pbc="T T T"
Si       1.39144293       1.23836580       1.35819482       0.00000000
Si       1.36634004      -1.33128396      -1.32300381       0.00000000
Si      -1.35234530       1.38645819      -1.29291841       0.00000000
Si      -1.41619233      -1.24227540       1.46184896       0.00000000
Si       0.47959389       1.04008392       3.48401283       0.00000000
Si      -2.69367272       0.01643661      -2.66485383       0.00000000
Si       0.02200779      -2.70366759      -2.67126154       0.00000000
Si       0.01840770       2.73137688      -2.66409998       0.00000000
Si       2.73424392      -2.66743863       0.02679588       0.00000000
Si       2.73818610       0.01493793      -2.66670418       0.00000000
