10
Lattice="16.28999089631971 0.0 0.0 0.0 16.28999089631971 0.0 0.0 0.0 34.26581377546328" Properties=species:S:1:pos:R:3:initial_magmoms:R:1 pbc="T T T"
Si      -0.47192130       2.12752287      -1.03866593       0.00000000
Si      -1.88857463      -1.36604682      -0.63127944       0.00000000
Si      -0.02788848       0.00369783       2.42033284       0.00000000
Si       1.94228928      -1.15066044      -0.96598810       0.00000000
Si       1.31846373      -3.35391552      -0.43431943       0.00000000
Si      -1.08588977      -3.53616804      -0.40509068       0.00000000
Si       1.28016594       1.86062751       3.01361147       0.00000000
Si      -2.02742603      -1.17669186      -2.97595332       0.00000000
Si      -2.84235155       2.26914813      -1.32882900       0.00000000
Si       2.05903971      -0.41225103      -3.26375205       0.00000000
