10
Lattice="16.28999089631971 0.0 0.0 0.0 16.28999089631971 0.0 0.0 0.0 34.26581377546328" Properties=species:S:1:pos:R:3:initial_magmoms:R:1 pbc="T T T"
Si      -1.35638359      -1.35786598       1.35840041       0.00000000
Si       1.35832536       1.35791811       1.35805776       0.00000000
Si      -1.35477740       1.35674523      -1.36309483       0.00000000
Si       1.35995436      -1.35972956      -1.35771510       0.00000000
Si       2.71557558      -2.71403644       0.00037692       0.00000000
Si      -2.71398217       0.00052128       2.71577285       0.00000000
Si       0.00083079      -2.71455519       2.71539593       0.00000000
Si       0.00065160       2.71523349       2.71512180       0.00000000
Si       2.71492398       2.71562445       0.00047972       0.00000000
Si      -2.71579638      -2.71519679       0.00017133       0.00000000
