10
Lattice="16.28999089631971 0.0 0.0 0.0 16.28999089631971 0.0 0.0 0.0 34.26581377546328" Properties=species:S:1:pos:R:3:initial_magmoms:R:1 pbc="T T T"
Si       1.35721438      -1.35668921       1.35699552       0.00000000
Si       1.35638359       1.35786598      -1.35840041       0.00000000
Si      -1.35759858       1.35838726       1.35737244       0.00000000
Si      -1.35941279      -1.35733081      -1.35822909       0.00000000
Si       2.71405735      -2.71377783      -0.00030839       0.00000000
Si       0.00035186      -2.71317510       2.71484768       0.00000000
Si      -2.71558602       0.00188964       2.71361411       0.00000000
Si       0.00013032       2.71549087       2.71399103       0.00000000
Si      -2.71555344      -2.71403847       0.00034266       0.00000000
Si       2.71477411       0.00332479       2.71491621       0.00000000
