10
Lattice="16.290000149 0.0 0.0 0.0 16.290000149 0.0 0.0 0.0 29.1751946751" Properties=species:S:1:pos:R:3:initial_magmoms:R:1 pbc="T T T"
H        0.43714215       1.28376604      -0.67706874       0.00000000
Si      -0.82445320       0.96120775       1.95138290       0.00000000
Si      -1.88011037      -0.71434909      -1.26535737       0.00000000
Si       2.00611352      -1.36741519      -0.07048727       0.00000000
H        0.97119352      -0.26383284      -2.47942474       0.00000000
H       -0.64819540      -2.65631258      -1.04461785       0.00000000
Si      -2.32389884       2.28592685       0.66437753       0.00000000
Si       3.19558815       0.64777186      -0.69789983       0.00000000
Si       0.79229674      -2.94259305      -1.48665122       0.00000000
Si       2.00920862       0.83758294      -2.69800530       0.00000000
