10
Lattice="16.290000149 0.0 0.0 0.0 16.290000149 0.0 0.0 0.0 29.1751946751" Properties=species:S:1:pos:R:3:initial_magmoms:R:1 pbc="T T T"
Si       1.08266599      -1.41999931      -1.49840882       0.00000000
Si      -1.54497619       1.32436072      -1.18538816       0.00000000
Si      -1.05511960      -1.76239883       1.18206219       0.00000000
Si       2.12677355       0.97002064       0.67960698       0.00000000
Si       0.21742263       0.80589889       3.38904896       0.00000000
Si       2.37768842      -2.71420724      -0.07250036       0.00000000
Si      -0.20095344       2.70275537      -2.49835945       0.00000000
Si       2.49771314      -0.09373266      -2.73724594       0.00000000
Si      -1.40380705      -0.88132159       3.31765726       0.00000000
Si       0.54649692      -3.53903511       1.09208589       0.00000000
