10
Lattice="16.290000149 0.0 0.0 0.0 16.290000149 0.0 0.0 0.0 29.1751946751" Properties=species:S:1:pos:R:3:initial_magmoms:R:1 pbc="T T T"
Si       1.31163823       1.35931906       1.34658986       0.00000000
Si      -1.37254654       1.26846973      -1.41722009       0.00000000
Si       1.28791999      -1.45047790      -1.32724087       0.00000000
Si      -1.42791625      -1.38997684       1.28228773       0.00000000
Si      -2.17987895      -0.59150620      -2.59814474       0.00000000
Si      -0.55081378      -2.33064290      -2.51418407       0.00000000
Si       2.61969266       2.64888434      -0.12435927       0.00000000
Si       2.62953182      -0.03187953       2.68794861       0.00000000
Si      -0.10715562       2.69094512       2.64818282       0.00000000
Si       2.53974134      -2.82177012       0.08397496       0.00000000
