10
Lattice="16.290000149 0.0 0.0 0.0 16.290000149 0.0 0.0 0.0 29.1751946751" Properties=species:S:1:pos:R:3:initial_magmoms:R:1 pbc="T T T"
Si      -1.33250572       1.36606801      -1.37155508       0.00000000
Si       1.37082143       1.37205947       1.32951362       0.00000000
Si       1.36988964      -1.33951042      -1.38019093       0.00000000
Si      -1.37907883      -1.32680422       1.38897267       0.00000000
Si      -2.63709038      -2.69469182      -0.06631522       0.00000000
Si       0.06009686      -2.67595832       2.67533618       0.00000000
Si      -0.02586852       2.70878267       2.67764102       0.00000000
Si      -2.70322778       2.70620885      -0.00633102       0.00000000
Si      -2.66470193       0.01138671      -2.75472188       0.00000000
Si       2.77671198       0.03365514       2.66197394       0.00000000
