10
Lattice="16.290000149 0.0 0.0 0.0 16.290000149 0.0 0.0 0.0 29.1751946751" Properties=species:S:1:pos:R:3:initial_magmoms:R:1 pbc="T T T"
Si       0.34868745      -0.88107724      -2.13559507       0.00000000
Si      -1.82145008       1.45865548       0.16200986       0.00000000
Si       1.62122968       1.68722048       0.07139170       0.00000000
Si       0.22836951      -1.51363423       1.83806644       0.00000000
H       -0.89476084      -1.45539748       2.85053322       0.00000000
Si       1.05969709       2.72285723       2.08103746       0.00000000
Si       2.29035773      -0.81850735       2.73771274       0.00000000
Si       1.40380705       0.88132159      -3.31765726       0.00000000
Si      -3.65039355       0.16379595       0.79718302       0.00000000
H       -1.81537391       0.31631922       3.27762890       0.00000000
