10
Lattice="16.290000149 0.0 0.0 0.0 16.290000149 0.0 0.0 0.0 29.1751946751" Properties=species:S:1:pos:R:3:initial_magmoms:R:1 pbc="T T T"
Si       1.34695495       1.35610993       1.36259829       0.00000000
Si      -1.35159760       1.36868581      -1.35597552       0.00000000
Si       1.37665162      -1.34947990      -1.35127832       0.00000000
Si      -1.35944938      -1.34501644       1.37318889       0.00000000
Si      -0.05274702      -2.75441097      -2.59272078       0.00000000
Si       2.67814118      -2.69887835       0.06628604       0.00000000
Si      -0.02335986       2.71958294       2.69847211       0.00000000
Si      -2.67217904       0.02565675      -2.74673080       0.00000000
Si       2.69273702      -0.00371412       2.73108997       0.00000000
Si       2.69741225       2.73144206       0.01461677       0.00000000
