10
Lattice="16.290000149 0.0 0.0 0.0 16.290000149 0.0 0.0 0.0 29.1751946751" Properties=species:S:1:pos:R:3:initial_magmoms:R:1 pbc="T T T"
Si       1.35110369       1.39509190       1.31999376       0.00000000
Si      -1.30709853      -1.30216560       1.45892603       0.00000000
Si      -1.45496287       1.37459908      -1.23598962       0.00000000
Si       1.46336785      -1.28019853      -1.35042348       0.00000000
Si      -0.15171398      -2.27385922      -2.69154708       0.00000000
Si      -2.64869408      -2.64510050       0.14281841       0.00000000
Si      -0.13544027       2.71428869      -2.59214107       0.00000000
Si       2.64583290       0.03329676       2.74135089       0.00000000
Si       2.69859621      -2.69724935       0.02564791       0.00000000
Si      -0.00054262       2.71715573       2.72294134       0.00000000
