10
Lattice="16.290000149 0.0 0.0 0.0 16.290000149 0.0 0.0 0.0 29.1751946751" Properties=species:S:1:pos:R:3:initial_magmoms:R:1 pbc="T T T"
Si      -2.19374174       0.72358552       0.46878703       0.00000000
Si      -0.26572248      -2.02971773       1.19734999       0.00000000
Si       1.57587832       1.30854313       1.20522729       0.00000000
Si      -0.28439082       0.88770727      -2.24065495       0.00000000
H        2.24961644      -0.95030974      -1.63579481       0.00000000
H        0.81112798      -1.86101849      -2.18475528       0.00000000
H        1.61694541      -2.60918561      -0.53235978       0.00000000
H        1.04798458      -2.48743415       1.80247270       0.00000000
Si      -2.15001938       2.86860061      -0.51316250       0.00000000
Si      -2.41116437      -0.08231337      -2.92026194       0.00000000
