10
Lattice="16.290000149 0.0 0.0 0.0 16.290000149 0.0 0.0 0.0 29.1751946751" Properties=species:S:1:pos:R:3:initial_magmoms:R:1 pbc="T T T"
Si      -1.48584349       1.80050114      -0.11530037       0.00000000
Si       1.12873411      -1.11536002      -1.75094931       0.00000000
Si      -1.65737720      -1.52588431       0.73571088       0.00000000
Si       1.86134429       0.84354508       1.24992369       0.00000000
H       -0.75321703       0.55265455       2.49999326       0.00000000
H       -1.40310658       0.97686244       2.45567614       0.00000000
Si       2.47200752      -2.52970670      -0.37828557       0.00000000
H        1.36904419       3.21686778      -0.96762451       0.00000000
H        0.80008336       3.33861924       1.36720797       0.00000000
Si       2.55490733       2.70425405      -0.16942036       0.00000000
