10
Lattice="16.290000149 0.0 0.0 0.0 16.290000149 0.0 0.0 0.0 29.1751946751" Properties=species:S:1:pos:R:3:initial_magmoms:R:1 pbc="T T T"
Si       1.36502056       1.35513253       1.34690204       0.00000000
Si       1.37031481      -1.36347301      -1.33587381       0.00000000
Si      -1.34772058      -1.34762284       1.37916980       0.00000000
Si      -1.34809525       1.36148563      -1.36531159       0.00000000
Si      -0.00975771       2.71907795       2.67965411       0.00000000
Si       2.71560818      -0.02176344       2.68890264       0.00000000
Si       2.72077211       0.01185912      -2.68385533       0.00000000
Si      -2.69553890      -2.70998813       0.02946695       0.00000000
Si       0.02335986      -2.71958294      -2.69847211       0.00000000
Si      -2.70826139       0.00679293      -2.71781526       0.00000000
