10
Lattice="16.290000149 0.0 0.0 0.0 16.290000149 0.0 0.0 0.0 29.1751946751" Properties=species:S:1:pos:R:3:initial_magmoms:R:1 pbc="T T T"
Si      -1.43430030       1.21446838      -1.38027846       0.00000000
Si       1.14114709      -1.42799770      -1.46033519       0.00000000
Si      -1.48525054      -1.18917001       1.38906019       0.00000000
Si       1.50412087       1.33762078       1.30205976       0.00000000
H        0.02370195      -2.67415013       0.76476938       0.00000000
H       -2.59778750      -0.18534762       1.65303736       0.00000000
H        2.04312440      -2.32775957      -0.64821448       0.00000000
Si      -0.19479582      -1.04961358       3.41562757       0.00000000
Si      -0.06755463       2.64363896      -2.67863297       0.00000000
Si       0.12253338       2.81834922       2.51309292       0.00000000
