10
Lattice="16.290000149 0.0 0.0 0.0 16.290000149 0.0 0.0 0.0 29.1751946751" Properties=species:S:1:pos:R:3:initial_magmoms:R:1 pbc="T T T"
Si      -1.30903183      -1.34956135       1.42312223       0.00000000
Si       1.34484377      -1.45459927      -1.30050764       0.00000000
Si       1.39101940       1.29955105       1.41725802       0.00000000
Si      -1.32183577       1.51441615      -1.30643021       0.00000000
Si       2.66597255       0.03306870      -2.52467518       0.00000000
Si      -2.54260838       2.73538881       0.27488868       0.00000000
Si      -2.64704357      -2.67636557       0.02091861       0.00000000
Si      -2.64774404      -0.03793941       2.84147432       0.00000000
Si       2.80468191       2.68323995       0.15771818       0.00000000
Si       0.04823469      -2.72756504       2.78043982       0.00000000
