10
Lattice="16.290000149 0.0 0.0 0.0 16.290000149 0.0 0.0 0.0 29.1751946751" Properties=species:S:1:pos:R:3:initial_magmoms:R:1 pbc="T T T"
H       -0.89981074      -0.07138278       1.22305334       0.00000000
Si      -0.89059060       1.42265458      -1.59109842       0.00000000
Si       0.34007004      -2.11871000      -0.93442314       0.00000000
Si       1.88599106       1.34153038       0.38350793       0.00000000
H        1.00936099       0.36962010       2.46565405       0.00000000
H       -2.18880587      -1.82180846       0.79572426       0.00000000
Si       0.28062783       2.87690199       1.46474065       0.00000000
Si      -0.32905800       0.38701782      -3.60074418       0.00000000
Si      -1.72191818      -2.81383689      -1.83406944       0.00000000
Si       1.56120103      -3.44140914       0.58163668       0.00000000
