10
Lattice="16.290000149 0.0 0.0 0.0 16.290000149 0.0 0.0 0.0 29.1751946751" Properties=species:S:1:pos:R:3:initial_magmoms:R:1 pbc="T T T"
Si       1.11253696      -1.00382239      -0.26397716       0.00000000
Si      -1.91146373       1.59233122      -0.23243878       0.00000000
H       -1.18913254      -1.80338447       1.90102651       0.00000000
Si      -1.55142215       1.37292121       2.12736767       0.00000000
Si      -0.20526964      -2.71511948      -1.39270709       0.00000000
Si       2.59778750       0.18534762      -1.65303736       0.00000000
Si       2.40299168      -0.86426596       1.76259021       0.00000000
Si      -0.27365083       2.64477926      -1.66712897       0.00000000
Si      -1.10999572      -0.76393585       3.00376134       0.00000000
Si      -2.98176561      -0.10464696      -1.61026652       0.00000000
