10
Lattice="16.290000149 0.0 0.0 0.0 16.290000149 0.0 0.0 0.0 29.1751946751" Properties=species:S:1:pos:R:3:initial_magmoms:R:1 pbc="T T T"
Si      -1.34665033      -1.34794864       1.36890013       0.00000000
Si       1.34941474      -1.36842517      -1.36274417       0.00000000
Si      -1.36987498       1.34654770      -1.36884178       0.00000000
Si       1.33198444       1.34516305       1.41362571       0.00000000
Si      -2.64832788       2.69275331       0.08667950       0.00000000
Si       0.04378752       2.73023661      -2.62838162       0.00000000
Si       2.69487101       0.03028311      -2.69016301       0.00000000
Si      -2.71265969      -2.68056839      -0.00565999       0.00000000
Si       2.71782362       2.70529661       0.10783152       0.00000000
Si       0.00410508      -2.70814736       2.72773483       0.00000000
