10
Lattice="16.290000149 0.0 0.0 0.0 16.290000149 0.0 0.0 0.0 29.1751946751" Properties=species:S:1:pos:R:3:initial_magmoms:R:1 pbc="T T T"
Si       1.27181602      -1.36034533      -1.42287424       0.00000000
Si       1.35986347       1.41170770       1.30955779       0.00000000
Si      -1.39143773       1.35669637      -1.34970286       0.00000000
Si      -1.29547334      -1.35716878       1.44711883       0.00000000
Si       2.61937208      -2.69648372      -0.04770144       0.00000000
Si      -0.07727455       2.65667096       2.67574463       0.00000000
Si      -2.72268912      -2.62886393       0.04309176       0.00000000
Si       2.61401267       0.00868257      -2.78523913       0.00000000
Si      -0.03599569       2.70394454      -2.74348943       0.00000000
Si      -0.10783459      -2.72170064      -2.75588889       0.00000000
