10
Lattice="16.290000149 0.0 0.0 0.0 16.290000149 0.0 0.0 0.0 29.1751946751" Properties=species:S:1:pos:R:3:initial_magmoms:R:1 pbc="T T T"
Si       1.38583918       1.36013356      -1.30579419       0.00000000
Si       1.38134314      -1.34700382       1.33558206       0.00000000
Si      -1.31867551       1.36959805       1.38917689       0.00000000
Si      -1.33198444      -1.34516305      -1.41362571       0.00000000
Si       0.01213605       2.71905678      -2.61879465       0.00000000
Si       0.01272249      -2.69065190       2.67857462       0.00000000
Si      -2.67863477      -2.69311169      -0.04472557       0.00000000
Si      -2.66499678       2.73126125       0.03495188       0.00000000
Si       2.70418889       0.00636939      -2.69479603       0.00000000
Si      -2.69482377       0.02163312       2.73966748       0.00000000
