10
Lattice="16.290000149 0.0 0.0 0.0 16.290000149 0.0 0.0 0.0 29.1751946751" Properties=species:S:1:pos:R:3:initial_magmoms:R:1 pbc="T T T"
Si      -1.34805261      -1.35410626       1.35685078       0.00000000
Si      -1.36919703       1.35630541      -1.34045432       0.00000000
Si       1.33104480      -1.34845363      -1.39086906       0.00000000
Si       1.31485580       1.36629118       1.39352400       0.00000000
Si       0.02936725       2.69224832      -2.67308969       0.00000000
Si       2.68180021      -2.70865235      -0.03203436       0.00000000
Si      -2.69212423       0.01110978       2.70739972       0.00000000
Si       2.69100406       2.71425611       0.04303341       0.00000000
Si      -2.71942627      -2.70254360       0.00215896       0.00000000
Si       2.70405235       0.01679499       2.72300844       0.00000000
