10
Lattice="16.290000149 0.0 0.0 0.0 16.290000149 0.0 0.0 0.0 29.1751946751" Properties=species:S:1:pos:R:3:initial_magmoms:R:1 pbc="T T T"
Si      -1.35591445       1.35780409      -1.30302254       0.00000000
Si       1.38707722       1.35172792       1.29336556       0.00000000
Si       1.36098064      -1.34796493      -1.33211021       0.00000000
Si      -1.34576578      -1.31116582       1.38943947       0.00000000
H       -0.44378847      -2.21092769       2.20156019       0.00000000
Si       2.60768693      -0.18225252       2.53649143       0.00000000
Si      -2.66706398      -0.07172487      -2.62530072       0.00000000
Si      -2.55446750       2.76047085       0.17114169       0.00000000
Si       2.60108948      -2.73685035       0.04198311       0.00000000
Si       0.01578501       2.61197120      -2.73462017       0.00000000
