10
Lattice="16.290000149 0.0 0.0 0.0 16.290000149 0.0 0.0 0.0 29.1751946751" Properties=species:S:1:pos:R:3:initial_magmoms:R:1 pbc="T T T"
H        1.28598148       0.03766248       0.81635112       0.00000000
Si      -1.36874446      -1.37726738       1.35857212       0.00000000
Si       0.61333480      -1.51717405      -1.75853486       0.00000000
Si      -0.77893079       2.26712819       0.20784409       0.00000000
Si       0.53726049       1.99834319      -1.70246013       0.00000000
Si       0.50171571      -2.53344084       2.24348495       0.00000000
Si       2.74703160       1.91798462      -0.89314023       0.00000000
H       -3.05486373       1.05922468      -1.56402384       0.00000000
Si       3.60976629      -0.15786639      -0.10155885       0.00000000
Si       2.68755680      -2.23725070      -0.92050657       0.00000000
