10
Lattice="16.290000149 0.0 0.0 0.0 16.290000149 0.0 0.0 0.0 29.1751946751" Properties=species:S:1:pos:R:3:initial_magmoms:R:1 pbc="T T T"
Si      -1.37088496       1.34586352       1.33873298       0.00000000
Si      -1.38548080      -1.34930071      -1.32607095       0.00000000
Si       1.36290286      -1.36534636       1.33613639       0.00000000
Si       1.37047771       1.35819505      -1.33797443       0.00000000
Si       0.00716760       2.68126886       2.68344688       0.00000000
Si      -0.05559777      -2.76918925      -2.61269703       0.00000000
Si      -0.00153126      -2.71313048       2.68639358       0.00000000
Si       2.69781950      -0.00125433      -2.70404457       0.00000000
Si      -2.72054405      -0.01873350       2.69572964       0.00000000
Si       2.72163548      -0.02181231       2.70039767       0.00000000
