10
Lattice="16.290000149 0.0 0.0 0.0 16.290000149 0.0 0.0 0.0 29.1751946751" Properties=species:S:1:pos:R:3:initial_magmoms:R:1 pbc="T T T"
Si       1.27323619      -1.40242240      -1.33642435       0.00000000
Si      -1.31952259      -1.33968961       1.35615145       0.00000000
Si      -1.14578974       1.48292758      -1.39877174       0.00000000
Si       1.50670121       1.37917657       1.16609840       0.00000000
Si       1.94380427       0.33702381      -2.85913611       0.00000000
H       -2.30874914       0.91743652      -2.44446907       0.00000000
Si       0.52232256       2.27620172      -2.84606562       0.00000000
Si       0.10132380       2.72111420       2.53417871       0.00000000
Si      -2.58188357       0.05999607       2.71964834       0.00000000
Si       0.13544027      -2.71428869       2.59214107       0.00000000
