10
Lattice="16.290000149 0.0 0.0 0.0 16.290000149 0.0 0.0 0.0 29.1751946751" Properties=species:S:1:pos:R:3:initial_magmoms:R:1 pbc="T T T"
Si       1.35824392      -1.35358010       1.35387491       0.00000000
Si      -1.36301689       1.36223986       1.34558915       0.00000000
Si      -1.35567010      -1.38646961      -1.33164341       0.00000000
Si       1.35029440       1.38693550      -1.33677824       0.00000000
Si      -2.78151753      -0.04160303      -2.60324427       0.00000000
Si      -0.00192222      -2.71736262       2.69537954       0.00000000
Si      -0.00428427       2.70577391       2.70985043       0.00000000
Si       2.79376761       0.05404696      -2.61999083       0.00000000
Si      -0.02810025       2.72633189      -2.69459180       0.00000000
Si       2.70878267      -2.71446300      -0.00557246       0.00000000
