10
Lattice="16.290000149 0.0 0.0 0.0 16.290000149 0.0 0.0 0.0 29.1751946751" Properties=species:S:1:pos:R:3:initial_magmoms:R:1 pbc="T T T"
Si       1.34812783       1.02038932      -1.63328575       0.00000000
Si       1.43180956      -1.63225508       0.92222790       0.00000000
Si      -1.83604592      -1.18488411      -1.00464783       0.00000000
Si      -0.10200798       1.72913465       1.80932887       0.00000000
H       -2.24818292       1.48437739       0.49659099       0.00000000
Si       2.77534362       2.29208447      -0.22925868       0.00000000
Si       0.63522856       0.40014756       3.59770996       0.00000000
Si       2.62353710      -0.49098712       2.61319301       0.00000000
Si      -2.89618284       2.32233500      -0.58399987       0.00000000
Si       0.14139720      -3.06919893       2.20447771       0.00000000
