10
Lattice="16.290000149 0.0 0.0 0.0 16.290000149 0.0 0.0 0.0 29.1751946751" Properties=species:S:1:pos:R:3:initial_magmoms:R:1 pbc="T T T"
Si       1.33713860       1.34967538      -1.37012549       0.00000000
Si      -1.37846152       1.39605741       1.29835451       0.00000000
Si       1.34748275      -1.35285193       1.38506319       0.00000000
Si      -1.37947652      -1.35993808      -1.35676325       0.00000000
Si      -0.11733850      -2.73541682       2.59950985       0.00000000
Si      -2.69056394       0.05678694       2.66139043       0.00000000
Si       2.68652076      -2.68405445      -0.02223150       0.00000000
Si       2.68096587       2.69585819       0.01782604       0.00000000
Si      -0.06875195       2.68807971      -2.70258581       0.00000000
Si       2.68876878      -0.01163106      -2.73033142       0.00000000
