10
Lattice="16.290000149 0.0 0.0 0.0 16.290000149 0.0 0.0 0.0 29.1751946751" Properties=species:S:1:pos:R:3:initial_magmoms:R:1 pbc="T T T"
H        1.31370706      -0.45771642       0.60512271       0.00000000
Si      -1.25889121       0.24757542       1.93775808       0.00000000
Si       0.26572248       2.02971773      -1.19734999       0.00000000
Si      -0.97221979      -1.99583453      -0.87738563       0.00000000
H        1.88266790      -0.57946789      -1.72970977       0.00000000
Si       3.06853104      -1.09208161      -0.93150562       0.00000000
H       -0.88948288      -2.81947323       1.69359088       0.00000000
Si      -1.92801926       2.75330325      -0.72856296       0.00000000
Si      -3.32087943      -0.44755146       1.03811178       0.00000000
H        1.07685046       0.16869924      -3.38210527       0.00000000
