10
Lattice="16.290000149 0.0 0.0 0.0 16.290000149 0.0 0.0 0.0 29.1751946751" Properties=species:S:1:pos:R:3:initial_magmoms:R:1 pbc="T T T"
Si      -1.27323619       1.40242240       1.33642435       0.00000000
Si       1.63399127      -1.20003544       1.19435895       0.00000000
Si      -1.35826999      -1.92280646      -0.49977108       0.00000000
Si       0.67056808       1.73944622      -1.52271176       0.00000000
Si       0.32557194      -2.59206482       2.57814193       0.00000000
Si       0.14942654       0.81384841      -3.60981766       0.00000000
Si      -2.59275878       0.06273279       2.69257580       0.00000000
Si       0.23346502       2.78159898       2.50252275       0.00000000
Si      -2.41902593       2.88534999      -0.06234739       0.00000000
Si      -0.44038712      -2.83054717      -2.45908963       0.00000000
