10
Lattice="16.290000149 0.0 0.0 0.0 16.290000149 0.0 0.0 0.0 29.1751946751" Properties=species:S:1:pos:R:3:initial_magmoms:R:1 pbc="T T T"
Si      -1.32058144      -1.34302906      -1.39075527       0.00000000
Si       1.35400852       1.31466817      -1.40183601       0.00000000
Si      -1.38002365       1.35769006       1.33663237       0.00000000
Si       1.35159760      -1.36868581       1.35597552       0.00000000
Si       2.69710274       2.68242545      -0.03693580       0.00000000
Si      -2.69689097      -2.69454521      -0.02004336       0.00000000
Si       0.10412568      -2.71977842      -2.67766727       0.00000000
Si      -0.01985751       2.71238276       2.68913604       0.00000000
Si       2.69855255      -0.01257588       2.71857382       0.00000000
Si      -0.01873350       2.66820428      -2.76398792       0.00000000
