10
Lattice="16.290000149 0.0 0.0 0.0 16.290000149 0.0 0.0 0.0 29.1751946751" Properties=species:S:1:pos:R:3:initial_magmoms:R:1 pbc="T T T"
Si      -1.32989949       1.40216176      -1.31658901       0.00000000
Si       1.33882119       1.37468053       1.34051267       0.00000000
Si       1.35164631      -1.32206383      -1.40294759       0.00000000
Si      -1.38396600      -1.33833754       1.36084778       0.00000000
Si      -2.71678123       0.05712903      -2.59543407       0.00000000
Si       2.64637552      -2.68385897       0.01840955       0.00000000
Si       2.68123612       0.01339038       2.70101035       0.00000000
Si      -0.05121592       2.73261495       2.66331600       0.00000000
Si       2.66851363       2.73017145      -0.04627186       0.00000000
Si      -2.75002912      -2.68643279       0.01919728       0.00000000
