10
Lattice="16.290000149 0.0 0.0 0.0 16.290000149 0.0 0.0 0.0 29.1751946751" Properties=species:S:1:pos:R:3:initial_magmoms:R:1 pbc="T T T"
Si      -1.35516511      -1.35492076       1.33386073       0.00000000
Si      -1.37383345       1.34648417      -1.33721587       0.00000000
Si       1.30683268       1.31400028       1.44624358       0.00000000
Si       1.35169534      -1.38533419      -1.33768268       0.00000000
Si       0.03978018      -2.80549641       2.52718454       0.00000000
Si       2.67333563       2.67327047       0.06920356       0.00000000
Si      -0.00939933       2.69426828      -2.68747306       0.00000000
Si       2.71186148      -0.02155167      -2.67918730       0.00000000
Si      -2.72616410      -0.02313180      -2.68662698       0.00000000
Si      -2.72403011       2.69612534       0.03591466       0.00000000
