10
Lattice="16.290000149 0.0 0.0 0.0 16.290000149 0.0 0.0 0.0 29.1751946751" Properties=species:S:1:pos:R:3:initial_magmoms:R:1 pbc="T T T"
Si       1.36016614       1.35469270       1.35250367       0.00000000
Si      -1.32969244      -1.35549091       1.38678453       0.00000000
Si       1.38002365      -1.35769006      -1.33663237       0.00000000
Si      -1.37007698       1.35066907      -1.36090613       0.00000000
Si      -2.66851363      -2.73017145       0.04627186       0.00000000
Si      -0.00905724       2.70703964       2.70509488       0.00000000
Si       2.71358822       2.69905754      -0.02529489       0.00000000
Si      -0.02572191       2.67724523      -2.74651782       0.00000000
Si       2.70826139      -0.00679293       2.71781526       0.00000000
Si       0.05944221      -2.70071912      -2.72738764       0.00000000
