10
Lattice="16.290000149 0.0 0.0 0.0 16.290000149 0.0 0.0 0.0 29.1751946751" Properties=species:S:1:pos:R:3:initial_magmoms:R:1 pbc="T T T"
Si       1.29041236       1.43694385      -1.28224981       0.00000000
Si      -1.03048912       1.62399084       1.31553870       0.00000000
Si       1.52401096      -0.99932635       1.50438974       0.00000000
Si      -1.57587832      -1.30854313      -1.20522729       0.00000000
Si       2.48213990       2.57821181       0.40871530       0.00000000
Si      -1.55457100       0.36955494       3.24781185       0.00000000
Si       2.59646312       0.02873556      -2.62089526       0.00000000
H        0.67373812      -2.25885287      -2.84102211       0.00000000
Si       3.04225527       0.85367746       1.95044929       0.00000000
Si       2.52791480      -2.75913507       0.23515207       0.00000000
