10
Lattice="16.290000149 0.0 0.0 0.0 16.290000149 0.0 0.0 0.0 29.1751946751" Properties=species:S:1:pos:R:3:initial_magmoms:R:1 pbc="T T T"
Si      -1.33882119      -1.37468053      -1.34051267       0.00000000
Si       1.34241493      -1.36129015       1.36049768       0.00000000
Si      -1.39003712       1.35793441       1.32280333       0.00000000
Si       1.32969244       1.35549091      -1.38678453       0.00000000
Si      -2.66872068       0.02748123      -2.65710168       0.00000000
Si      -0.03781235       2.71147052       2.68198812       0.00000000
Si       2.68985858       2.71018361      -0.03428085       0.00000000
Si       2.69023325       0.00107514       2.71020053       0.00000000
Si       2.70186431      -2.71590140       0.00574751       0.00000000
Si      -2.72855385      -0.00074934       2.70103952       0.00000000
