10
Lattice="16.290000149 0.0 0.0 0.0 16.290000149 0.0 0.0 0.0 29.1751946751" Properties=species:S:1:pos:R:3:initial_magmoms:R:1 pbc="T T T"
Si       1.36004071       1.34988715      -1.35387491       0.00000000
Si       1.37064550      -1.34284987       1.35609222       0.00000000
Si      -1.33894863       1.36293544       1.37216776       0.00000000
Si      -1.34890487      -1.37810143      -1.35054894       0.00000000
Si      -2.68854561      -0.04844646       2.67574463       0.00000000
Si       2.66974043      -2.70062138      -0.06106368       0.00000000
Si      -0.02915584       2.69938334      -2.68335936       0.00000000
Si      -2.69206425      -0.02101410      -2.72003257       0.00000000
Si       2.67839042      -0.01290168      -2.74445221       0.00000000
Si       2.72704865       0.03881907       2.70669951       0.00000000
