10
Lattice="16.290000149 0.0 0.0 0.0 16.290000149 0.0 0.0 0.0 29.1751946751" Properties=species:S:1:pos:R:3:initial_magmoms:R:1 pbc="T T T"
Si       0.18028143      -1.38888378      -0.60961569       0.00000000
Si      -0.70584571       1.82472437       1.93062766       0.00000000
Si      -0.51996051       1.28065465      -2.38898164       0.00000000
Si      -2.54457947       0.94455937       0.74368446       0.00000000
Si      -2.45943164       0.25332579      -1.48662204       0.00000000
Si       1.20032866       2.61643466       0.80755772       0.00000000
Si       2.04633353      -0.78323950       2.06330478       0.00000000
Si       1.00295902      -2.63265950       1.10789884       0.00000000
Si       2.90849808       0.95218309       0.68369180       0.00000000
Si       2.07870176      -1.37288863      -1.95097444       0.00000000
