10
Lattice="16.290000149 0.0 0.0 0.0 16.290000149 0.0 0.0 0.0 29.1751946751" Properties=species:S:1:pos:R:3:initial_magmoms:R:1 pbc="T T T"
Si      -1.18637953       0.18981108      -2.00010547       0.00000000
Si       0.22091195       1.83798443       1.42185311       0.00000000
Si       2.31258218      -0.15074766      -0.57405113       0.00000000
Si      -1.18947463      -2.01518705       0.62741256       0.00000000
H       -2.75844600       0.63599419       0.02083109       0.00000000
H       -2.22439463      -0.91160470      -1.78152491       0.00000000
Si      -3.19558815      -0.64777186       0.69789983       0.00000000
Si       1.86845161      -1.95958928      -2.05606349       0.00000000
Si       1.63599331       0.69820570       2.91953256       0.00000000
Si       0.30258512      -0.88470991      -3.42163766       0.00000000
