10
Lattice="16.290000149 0.0 0.0 0.0 16.290000149 0.0 0.0 0.0 29.1751946751" Properties=species:S:1:pos:R:3:initial_magmoms:R:1 pbc="T T T"
Si      -1.36363591      -1.35081568       1.35329724       0.00000000
Si       1.30634398       1.29411019       1.47557048       0.00000000
Si      -1.37324701       1.41219640      -1.30568916       0.00000000
Si       1.36689391      -1.34776945      -1.38770938       0.00000000
Si       2.66411549       2.63353916       0.16102373       0.00000000
Si      -2.70673013      -2.71857296      -0.01160297       0.00000000
Si       2.71511948      -2.71254566      -0.01171676       0.00000000
Si      -2.72717409       0.02350647       2.70157051       0.00000000
Si      -0.01172880      -2.67048488       2.76082533       0.00000000
Si      -2.79155217       0.12613347      -2.65383027       0.00000000
