10
Lattice="16.290000149 0.0 0.0 0.0 16.290000149 0.0 0.0 0.0 29.1751946751" Properties=species:S:1:pos:R:3:initial_magmoms:R:1 pbc="T T T"
Si       0.62672518      -0.40420377       2.14814041       0.00000000
Si       1.83119150       0.82482787      -1.16458625       0.00000000
Si      -0.87713506      -1.88920019      -1.07011697       0.00000000
Si      -1.60161652       1.77663629       0.08997630       0.00000000
H        2.67579542       1.76033000      -0.35657923       0.00000000
Si      -2.27247131      -0.60652558      -2.43003114       0.00000000
Si       0.53616906       2.11903580      -2.59049471       0.00000000
Si      -1.49709988      -0.99046459       3.15062927       0.00000000
Si      -3.45533709       0.84546730      -1.01891450       0.00000000
Si      -0.54649692       3.53903511      -1.09208589       0.00000000
