10
Lattice="16.290000149 0.0 0.0 0.0 16.290000149 0.0 0.0 0.0 29.1751946751" Properties=species:S:1:pos:R:3:initial_magmoms:R:1 pbc="T T T"
Si      -1.41830515      -1.28606293      -1.34814111       0.00000000
Si      -1.38580660       1.35772264       1.31975160       0.00000000
Si       1.32618520       1.40263417      -1.33944573       0.00000000
Si       1.37324701      -1.41219640       1.30568916       0.00000000
Si       2.63239886       2.58747104       0.21217369       0.00000000
Si       2.67015908       0.04908177      -2.68278752       0.00000000
Si      -0.10349037      -2.71598285      -2.64077524       0.00000000
Si      -2.73126287      -0.04098564       2.64717044       0.00000000
Si      -2.71572221       0.21667329      -2.67009631       0.00000000
Si      -0.04450428       2.67897197       2.72874429       0.00000000
