10
Lattice="16.290000149 0.0 0.0 0.0 16.290000149 0.0 0.0 0.0 29.1751946751" Properties=species:S:1:pos:R:3:initial_magmoms:R:1 pbc="T T T"
Si      -1.56586649       1.07487937      -1.36557416       0.00000000
Si       1.38158749      -1.48072843      -1.21103316       0.00000000
Si      -0.84852982      -1.48773313       1.63200204       0.00000000
Si       0.44413056       1.80884162       1.48201236       0.00000000
H        0.34525026      -1.12008412       2.52499640       0.00000000
Si      -1.86845161       1.95958928       2.05606349       0.00000000
Si      -0.25730055       2.56942172      -2.62999792       0.00000000
Si      -3.05483115       2.14940036       0.05595802       0.00000000
Si       2.69386103      -0.11780928      -2.59166172       0.00000000
Si      -0.12253338      -2.81834922      -2.51309292       0.00000000
