10
Lattice="16.290000149 0.0 0.0 0.0 16.290000149 0.0 0.0 0.0 29.1751946751" Properties=species:S:1:pos:R:3:initial_magmoms:R:1 pbc="T T T"
Si      -1.35342208      -1.34436484       1.37779857       0.00000000
Si       1.33571485       1.34985457       1.39451596       0.00000000
Si      -1.37733580       1.34770429      -1.36008923       0.00000000
Si       1.36353817      -1.37432215      -1.34827327       0.00000000
Si       2.69648372       2.71205696       0.06243492       0.00000000
Si       2.71544528      -2.69399135       0.05925482       0.00000000
Si      -2.71358822      -2.69905754       0.02529489       0.00000000
Si       2.72717409      -0.02350647      -2.70157051       0.00000000
Si      -0.03187953       2.74641258      -2.68750807       0.00000000
Si      -2.72675054       2.71612946       0.00265494       0.00000000
