10
Lattice="16.290000149 0.0 0.0 0.0 16.290000149 0.0 0.0 0.0 29.1751946751" Properties=species:S:1:pos:R:3:initial_magmoms:R:1 pbc="T T T"
Si       1.34249475       1.36111096       1.35343728       0.00000000
Si      -1.33672483       1.37474569      -1.35294130       0.00000000
Si       1.36578293      -1.35070165      -1.34967368       0.00000000
Si      -1.35408997      -1.34791606       1.37327641       0.00000000
Si      -2.69612534       0.01058850      -2.68473059       0.00000000
Si       2.67160889       0.00164529       2.71836959       0.00000000
Si      -0.00480555      -2.71992503      -2.67387742       0.00000000
Si       2.69426828      -2.71164971       0.02392366       0.00000000
Si      -2.68385897       2.72305271       0.01277874       0.00000000
Si       2.69307911       2.72683199      -0.01018214       0.00000000
