10
Lattice="16.290000149 0.0 0.0 0.0 16.290000149 0.0 0.0 0.0 29.1751946751" Properties=species:S:1:pos:R:3:initial_magmoms:R:1 pbc="T T T"
Si      -1.33801174      -1.32680422      -1.40220362       0.00000000
Si      -1.33871221       1.31162194       1.41835209       0.00000000
Si       1.30903183       1.34956135      -1.42312223       0.00000000
Si       1.35726652      -1.37800369       1.35731758       0.00000000
Si      -2.69203655       2.65504196       0.06018843       0.00000000
Si       2.70005123       2.64911240      -0.00586421       0.00000000
Si       2.65387560      -0.10503792      -2.72362988       0.00000000
Si      -2.68030775      -2.74260072      -0.04064105       0.00000000
Si       0.02303406       2.65937510       2.78229244       0.00000000
Si      -2.69224832      -0.06082686       2.76216156       0.00000000
