10
Lattice="16.290000149 0.0 0.0 0.0 16.290000149 0.0 0.0 0.0 29.1751946751" Properties=species:S:1:pos:R:3:initial_magmoms:R:1 pbc="T T T"
H       -1.16295940      -0.56549107      -1.04569733       0.00000000
Si      -1.53992629       1.26998470       1.19869205       0.00000000
Si       1.14578974      -1.48292758       1.39877174       0.00000000
Si       1.66811231       0.79327414      -1.44729388       0.00000000
Si      -2.47606373      -1.08168859      -1.97813655       0.00000000
Si       3.08959401      -1.14590377      -1.46036437       0.00000000
Si      -0.14478552       2.58678686       2.57151333       0.00000000
Si       2.65249095      -0.10375101       2.56487014       0.00000000
Si       2.78273439       2.49049667      -0.19372329       0.00000000
Si       2.41902593      -2.88534999       0.06234739       0.00000000
