10
Lattice="16.290000149 0.0 0.0 0.0 16.290000149 0.0 0.0 0.0 29.1751946751" Properties=species:S:1:pos:R:3:initial_magmoms:R:1 pbc="T T T"
Si       1.26245872      -1.10928385       1.59451191       0.00000000
Si      -1.80947693      -1.32686287      -0.60334303       0.00000000
Si       1.21775896       1.31826826      -1.50185150       0.00000000
Si      -1.33620355       1.54425943       1.15650472       0.00000000
H        2.94427092      -0.71830756      -0.61305837       0.00000000
Si      -0.63596161      -1.12527900       2.93587066       0.00000000
Si      -0.20411370      -2.86223448      -1.68457574       0.00000000
Si       2.74989864       2.04770189       0.09881638       0.00000000
Si      -3.03642345       0.53916643      -1.55705096       0.00000000
Si      -2.54519849      -1.67260346       1.65782209       0.00000000
