10
Lattice="16.290000149 0.0 0.0 0.0 16.290000149 0.0 0.0 0.0 29.1751946751" Properties=species:S:1:pos:R:3:initial_magmoms:R:1 pbc="T T T"
Si       1.05759568      -1.46564389      -1.47784031       0.00000000
Si      -1.31227354      -1.36291915       1.38062856       0.00000000
Si      -1.44712216       1.35153244      -1.28391279       0.00000000
Si       1.81237655       0.75341251       1.38681370       0.00000000
Si       2.15407559      -1.19809693       2.75769775       0.00000000
Si       0.28183329      -2.66159054       2.60035593       0.00000000
Si       2.43234137      -0.14532309      -2.83393253       0.00000000
Si      -2.69386103       0.11780928       2.59166172       0.00000000
Si       2.27820539      -2.99962434      -0.23471444       0.00000000
Si      -0.14586066       2.58934439      -2.78273007       0.00000000
