10
Lattice="16.290000149 0.0 0.0 0.0 16.290000149 0.0 0.0 0.0 29.1751946751" Properties=species:S:1:pos:R:3:initial_magmoms:R:1 pbc="T T T"
Si       1.37769418       1.36410832       1.30573584       0.00000000
Si      -1.31789359       1.39119859      -1.34135875       0.00000000
Si       1.32734179      -1.35944938      -1.36607014       0.00000000
Si      -1.37047771      -1.35819505       1.33797443       0.00000000
Si      -2.62953182       0.03187953      -2.68794861       0.00000000
Si      -0.00765630       2.67882536       2.66354940       0.00000000
Si       2.73898434       0.04471605      -2.62288793       0.00000000
Si       2.70663239      -0.00263898       2.68230905       0.00000000
Si      -0.00757485      -2.72354141       2.67411082       0.00000000
Si      -0.08979048      -2.78989059      -2.60397365       0.00000000
