10
Lattice="16.290000149 0.0 0.0 0.0 16.290000149 0.0 0.0 0.0 29.1751946751" Properties=species:S:1:pos:R:3:initial_magmoms:R:1 pbc="T T T"
Si       1.37350765       1.38339568       1.30952861       0.00000000
Si       1.37072206      -1.34014085      -1.36522406       0.00000000
Si      -1.32400234       1.36453186      -1.39241534       0.00000000
Si      -1.36650295      -1.35927019       1.37704001       0.00000000
Si      -2.67333563      -2.67327047      -0.06920356       0.00000000
Si       2.67735926       0.00257382       2.68397203       0.00000000
Si      -2.68411961       2.71617833      -0.03985332       0.00000000
Si       2.70322778      -2.70620885       0.00633102       0.00000000
Si      -2.69006546       0.03466512       2.74208902       0.00000000
Si       0.04983111       2.75388969       2.68315513       0.00000000
