10
Lattice="16.290000149 0.0 0.0 0.0 16.290000149 0.0 0.0 0.0 29.1751946751" Properties=species:S:1:pos:R:3:initial_magmoms:R:1 pbc="T T T"
Si      -1.38033316      -1.25802784      -1.39657631       0.00000000
Si       1.19472490      -1.40331835       1.44092202       0.00000000
Si       1.87216085       0.80008336      -1.19806799       0.00000000
Si      -1.42470712       1.37674936       1.28691200       0.00000000
Si       2.51159222      -2.72471918       0.04011298       0.00000000
Si       2.62412354       0.00161271       2.68236448       0.00000000
Si      -2.68875249      -2.65005722      -0.01279332       0.00000000
Si       2.67949325       2.66005928      -0.01714334       0.00000000
Si       3.50122602      -0.93905335      -1.11410732       0.00000000
Si      -0.10412568       2.71977842       2.67766727       0.00000000
