10
Lattice="16.290000149 0.0 0.0 0.0 16.290000149 0.0 0.0 0.0 29.1751946751" Properties=species:S:1:pos:R:3:initial_magmoms:R:1 pbc="T T T"
Si      -1.37595115      -1.32053257       1.36297757       0.00000000
Si      -1.37370313       1.35189082      -1.34512235       0.00000000
Si       1.29064042      -1.36808308      -1.41184602       0.00000000
Si       1.40848228       1.32507748       1.35661738       0.00000000
Si       0.04461831      -2.69285105       2.61517693       0.00000000
Si       0.04357575       2.69540858       2.69981416       0.00000000
Si      -0.01023012       2.70238070      -2.69418335       0.00000000
Si       2.67910229      -0.00822645      -2.72478813       0.00000000
Si       2.61073316      -2.80888473      -0.13633568       0.00000000
Si      -2.73235431      -2.70220151       0.01237028       0.00000000
