10
Lattice="16.290000149 0.0 0.0 0.0 16.290000149 0.0 0.0 0.0 29.1751946751" Properties=species:S:1:pos:R:3:initial_magmoms:R:1 pbc="T T T"
Si      -0.62672518       0.40420377      -2.14814041       0.00000000
Si       1.48584349      -1.80050114       0.11530037       0.00000000
Si       0.97221979       1.99583453       0.87738563       0.00000000
Si      -2.12382506      -0.58626082       1.00248886       0.00000000
H        0.08273691      -0.82363870       2.57097651       0.00000000
H        0.73262647      -1.24784659       2.61529363       0.00000000
H        2.28592685       1.53811810       1.48250834       0.00000000
H        2.85488769       1.41636664      -0.85232414       0.00000000
Si      -2.34865964       1.54828306       1.91549741       0.00000000
Si      -0.17153370      -3.32638545       0.85101125       0.00000000
