10
Lattice="16.290000149 0.0 0.0 0.0 16.290000149 0.0 0.0 0.0 29.1751946751" Properties=species:S:1:pos:R:3:initial_magmoms:R:1 pbc="T T T"
Si       0.52406559      -0.67880431       2.22953920       0.00000000
Si       1.18947463       2.01518705      -0.62741256       0.00000000
Si      -2.00611352       1.36741519       0.07048727       0.00000000
Si      -1.21381678      -1.57517785      -1.41616395       0.00000000
Si       2.20939643      -1.43213536      -1.05147402       0.00000000
H       -1.03492000       1.10358235      -2.40893747       0.00000000
H       -2.65430891      -1.28889739      -0.97413057       0.00000000
H       -1.56897136       2.65118123      -0.60658147       0.00000000
Si       0.00309510       2.20499813      -2.62751803       0.00000000
H        3.40317651      -1.06448635      -0.15847966       0.00000000
