10
Lattice="16.290000149 0.0 0.0 0.0 16.290000149 0.0 0.0 0.0 29.1751946751" Properties=species:S:1:pos:R:3:initial_magmoms:R:1 pbc="T T T"
H       -1.44049213       0.28628046       0.44203337       0.00000000
Si       0.44142642      -2.13685706       0.87639367       0.00000000
Si      -0.36004158       0.21941001      -2.35980645       0.00000000
Si       1.21381678       1.57517785       1.41616395       0.00000000
H        0.17889678       2.67876020      -0.99277352       0.00000000
H        1.55142215      -1.37292121      -2.12736767       0.00000000
H        0.36228960      -3.17630568      -0.22634116       0.00000000
Si      -0.79229674       2.94259305       1.48665122       0.00000000
Si       3.42321321       0.14304249       0.36468993       0.00000000
Si      -2.67240710       2.22824396       0.22129385       0.00000000
