10
Lattice="16.290000149 0.0 0.0 0.0 16.290000149 0.0 0.0 0.0 29.1751946751" Properties=species:S:1:pos:R:3:initial_magmoms:R:1 pbc="T T T"
Si       1.34060185       1.36265851       1.36446550       0.00000000
Si      -1.35075541       1.36019872      -1.35883469       0.00000000
Si      -1.35844755      -1.35106003       1.36367777       0.00000000
Si       1.36922338      -1.35234694      -1.35259120       0.00000000
Si      -2.68180021       2.70865235       0.03203436       0.00000000
Si       2.70756092       0.00524538       2.69237449       0.00000000
Si       0.00905724      -2.70703964      -2.70509488       0.00000000
Si      -2.71067231      -2.70459614       0.00449298       0.00000000
Si       2.70922250       2.70630659       0.02147294       0.00000000
Si       2.71731863      -2.71383257       0.01272038       0.00000000
