10
Lattice="16.290000149 0.0 0.0 0.0 16.290000149 0.0 0.0 0.0 29.1751946751" Properties=species:S:1:pos:R:3:initial_magmoms:R:1 pbc="T T T"
Si      -1.45585360      -1.29907864       1.30284749       0.00000000
Si       1.36974466      -1.38740302      -1.31046222       0.00000000
Si      -1.36304947       1.32628294      -1.38042434       0.00000000
Si       1.38315133       1.35006634       1.34027927       0.00000000
Si      -0.05501133       2.72093501       2.57223104       0.00000000
Si      -0.21574476      -2.68796405       2.67694081       0.00000000
Si       2.72388350       2.68294673      -0.03282209       0.00000000
Si       2.72277578      -0.03961728      -2.68481811       0.00000000
Si       0.00952965      -2.73294075      -2.67825370       0.00000000
Si      -0.01011609       2.67794570      -2.74276005       0.00000000
