10
Lattice="16.290000149 0.0 0.0 0.0 16.290000149 0.0 0.0 0.0 29.1751946751" Properties=species:S:1:pos:R:3:initial_magmoms:R:1 pbc="T T T"
Si      -1.34812783      -1.02038932       1.63328575       0.00000000
Si       1.23167062      -1.42956643      -1.41736013       0.00000000
Si      -1.35262387       1.30984633      -1.42701712       0.00000000
Si       1.42721578       1.27169515       1.40402707       0.00000000
Si       0.08368173      -2.65264440       2.55551365       0.00000000
Si      -0.06270021       2.53610867       2.68951532       0.00000000
Si       2.72268912       2.62886393      -0.04309176       0.00000000
Si      -1.45013581       0.70874533       3.44261462       0.00000000
Si      -2.74478358       2.66336615      -0.11419171       0.00000000
Si       2.61485453      -0.09283671      -2.79898065       0.00000000
