10
Lattice="16.290000149 0.0 0.0 0.0 16.290000149 0.0 0.0 0.0 29.1751946751" Properties=species:S:1:pos:R:3:initial_magmoms:R:1 pbc="T T T"
Si       1.32112879       1.48766797      -1.22416754       0.00000000
Si       1.40349103      -1.33033915       1.36272958       0.00000000
Si      -1.34484377       1.45459927       1.30050764       0.00000000
Si      -1.20028680      -1.50135157      -1.40022554       0.00000000
Si      -2.66477361      -2.67090842       0.01317844       0.00000000
Si      -2.65387560       0.10503792       2.72362988       0.00000000
Si       2.78100602       0.29683638      -2.59340348       0.00000000
Si       0.05913596      -2.65691531       2.74834127       0.00000000
Si       0.06728747       2.56152107      -2.89329530       0.00000000
Si       0.04617563       2.75415033       2.71776566       0.00000000
