10
Lattice="16.290000149 0.0 0.0 0.0 16.290000149 0.0 0.0 0.0 29.1751946751" Properties=species:S:1:pos:R:3:initial_magmoms:R:1 pbc="T T T"
Si       1.35591445      -1.35780409       1.30302254       0.00000000
Si       1.37169946       1.25416711      -1.43159763       0.00000000
Si      -1.31114953      -1.42952896      -1.32227817       0.00000000
Si      -1.19855305       1.40266675       1.47416424       0.00000000
Si      -2.56898678       2.64148868       0.03002128       0.00000000
Si       2.72240111       2.59691924      -0.11961830       0.00000000
Si      -2.64026368      -0.07006329      -2.68721048       0.00000000
Si       2.74299168      -0.00607617       2.59638810       0.00000000
Si      -2.56529872      -0.02650383       2.77251875       0.00000000
Si       0.01014867      -2.66896991       2.69246202       0.00000000
