10
Lattice="10.86 0.0 0.0 0.0 10.86 0.0 0.0 0.0 10.86" Properties=species:S:1:pos:R:3:initial_magmoms:R:1 pbc="T T T"
Si      -1.20203910      -1.42200840       1.12252218       0.00000000
Si       1.51296090       1.29299160       1.12252218       0.00000000
Si       1.51296090      -1.42200840      -1.59247782       0.00000000
Si      -2.66161224      -0.09525306       2.43922116       0.00000000
Si       0.27460596       2.49127314       2.66101494       0.00000000
Si       0.15546090      -2.77950840       2.48002218       0.00000000
Si      -2.55953910      -2.77950840      -0.23497782       0.00000000
Si       2.87046090      -0.06450840       2.48002218       0.00000000
Si      -2.48584314      -0.17685510      -2.88082134       0.00000000
Si       2.87046090       2.65049160      -0.23497782       0.00000000
