10
Lattice="10.86 0.0 0.0 0.0 10.86 0.0 0.0 0.0 10.86" Properties=species:S:1:pos:R:3:initial_magmoms:R:1 pbc="T T T"
Si      -1.43645220       1.16640744      -1.20435228       0.00000000
Si       1.27854780       1.16640744       1.51064772       0.00000000
Si       1.27854780      -1.54859256      -1.20435228       0.00000000
Si      -0.07895220       2.52390744      -2.56185228       0.00000000
Si       2.63604780       2.52390744       0.15314772       0.00000000
Si       2.63604780      -0.19109256      -2.56185228       0.00000000
Si      -2.79395220      -0.19109256      -2.56185228       0.00000000
Si      -0.07895220      -2.90609256      -2.56185228       0.00000000
Si       2.63604780      -0.19109256       2.86814772       0.00000000
Si       2.63604780      -2.90609256       0.15314772       0.00000000
