10
Lattice="10.86 0.0 0.0 0.0 10.86 0.0 0.0 0.0 10.86" Properties=species:S:1:pos:R:3:initial_magmoms:R:1 pbc="T T T"
Si       1.37509320      -1.37509320      -1.37447418       0.00000000
Si      -1.37984988       1.37984988      -1.38301014       0.00000000
Si       2.67402522       0.04097478      -2.65547634       0.00000000
Si      -0.04097478      -2.67402522      -2.65547634       0.00000000
Si       2.67402522      -2.67402522       0.05952366       0.00000000
Si      -2.75597478       0.04097478      -2.65547634       0.00000000
Si      -0.04097478       2.75597478      -2.65547634       0.00000000
Si       2.67402522       2.75597478       0.05952366       0.00000000
Si      -2.75597478      -2.67402522       0.05952366       0.00000000
Si      -0.04097478      -2.67402522       2.77452366       0.00000000
