10
Lattice="16.290000149 0.0 0.0 0.0 16.290000149 0.0 0.0 0.0 29.1751946751" Properties=species:S:1:pos:R:3:initial_magmoms:R:1 pbc="T T T"
Si       1.38272779      -1.34374582      -1.33569876       0.00000000
Si      -1.29446857       1.30442176      -1.46156055       0.00000000
Si       1.38627901       1.36102951       1.33318970       0.00000000
Si      -1.35907471      -1.38517129       1.34328431       0.00000000
Si      -2.77667940       0.05913270       2.47306455       0.00000000
Si      -2.65768094       2.67300983      -0.19926658       0.00000000
Si       0.01814706      -2.68190417      -2.71145507       0.00000000
Si       2.73035979       0.00615762       2.66620434       0.00000000
Si      -2.70469388      -2.69936705      -0.05543287       0.00000000
Si       0.04285899      -2.64898208       2.75556796       0.00000000
