10
Lattice="16.290000149 0.0 0.0 0.0 16.290000149 0.0 0.0 0.0 29.1751946751" Properties=species:S:1:pos:R:3:initial_magmoms:R:1 pbc="T T T"
Si      -1.34149780       1.35518140       1.34353172       0.00000000
Si       1.39821958      -1.42542388       1.22433704       0.00000000
Si       1.39403305       1.23538474      -1.42433300       0.00000000
Si      -1.50588019      -1.28585116      -1.28271661       0.00000000
H        0.51144084       2.08502228      -2.31554768       0.00000000
Si       2.70734915       0.02106297       2.59354060       0.00000000
Si      -2.55625940       2.76980502      -0.10678121       0.00000000
Si      -2.66255165      -0.04810437       2.68614559       0.00000000
Si       2.42598827      -0.25168050      -2.89289560       0.00000000
Si       0.07193664      -2.80795620       2.59991246       0.00000000
