10
Lattice="16.290000149 0.0 0.0 0.0 16.290000149 0.0 0.0 0.0 29.1751946751" Properties=species:S:1:pos:R:3:initial_magmoms:R:1 pbc="T T T"
Si      -1.29951847       1.37741725      -1.38296258       0.00000000
Si       1.38274245       1.35992179       1.33359815       0.00000000
Si       1.39223138      -1.33902987      -1.35154089       0.00000000
Si      -1.38334681      -1.33587449       1.38325433       0.00000000
Si       0.08543607      -2.63351994       2.64980788       0.00000000
Si      -2.67804344      -0.00711873      -2.68992377       0.00000000
Si      -2.62138682       2.75543724      -0.01718419       0.00000000
Si       0.02394630      -2.71094924      -2.68245492       0.00000000
Si      -2.61224813       0.09190818       2.81143846       0.00000000
Si       2.72844471       0.02127474       2.70950033       0.00000000
