10
Lattice="16.290000149 0.0 0.0 0.0 16.290000149 0.0 0.0 0.0 29.1751946751" Properties=species:S:1:pos:R:3:initial_magmoms:R:1 pbc="T T T"
H       -0.17883162       1.38751379       0.61057847       0.00000000
Si       0.83380366      -1.24449411       1.71331914       0.00000000
Si       1.89534152       0.01632584      -1.33887886       0.00000000
Si      -1.90035884      -0.54851037      -1.28580918       0.00000000
Si       0.64252648       1.12278500      -2.94336869       0.00000000
Si      -2.62949924       1.64180070      -0.88438768       0.00000000
Si      -0.69064714       2.66996035      -1.78700985       0.00000000
Si       1.87356179       0.60901795       2.66559166       0.00000000
Si       2.33212529      -2.27229538      -1.03563189       0.00000000
Si      -0.99834895      -2.26664275       2.65571002       0.00000000
