10
Lattice="16.290000149 0.0 0.0 0.0 16.290000149 0.0 0.0 0.0 29.1751946751" Properties=species:S:1:pos:R:3:initial_magmoms:R:1 pbc="T T T"
Si       1.34594334       1.32888934      -1.38081237       0.00000000
Si      -1.33105754      -1.36049194      -1.37812241       0.00000000
Si      -1.35438482       1.38826639       1.33015548       0.00000000
Si       1.36949868      -1.34871427       1.36280252       0.00000000
Si      -2.62728543      -2.67468770       0.09012218       0.00000000
Si       2.70809687       2.69672807      -0.01800110       0.00000000
Si      -2.69513328       0.03513753       2.71530619       0.00000000
Si      -0.03912044       2.66875814      -2.75251040       0.00000000
Si       0.00972676       2.71800281       2.70938363       0.00000000
Si       2.72891549       0.00625536       2.71623980       0.00000000
