10
Lattice="16.290000149 0.0 0.0 0.0 16.290000149 0.0 0.0 0.0 29.1751946751" Properties=species:S:1:pos:R:3:initial_magmoms:R:1 pbc="T T T"
Si       0.91038295       0.07226244      -1.21500098       0.00000000
H       -1.26700363      -1.76189384      -0.42756248       0.00000000
H        1.90138511       0.42428934       1.23927474       0.00000000
Si      -1.80354737      -2.01820070       0.95799669       0.00000000
Si       0.02016702       1.49134951      -2.80825836       0.00000000
Si       1.18397350       2.94102595       0.24775575       0.00000000
Si       1.24825384      -2.04869558      -2.14531041       0.00000000
Si       2.79889896       1.41260365      -0.83123047       0.00000000
Si      -2.65346183      -0.14327055       2.07283923       0.00000000
H       -2.86570425      -0.91575865      -1.59670005       0.00000000
