10
Lattice="16.290000149 0.0 0.0 0.0 16.290000149 0.0 0.0 0.0 29.1751946751" Properties=species:S:1:pos:R:3:initial_magmoms:R:1 pbc="T T T"
Si      -1.36837630      -1.34887717      -1.33730340       0.00000000
Si      -1.36459702       1.34679205       1.35092821       0.00000000
Si       1.32481684      -1.38450340       1.35845541       0.00000000
Si       1.38397463       1.33146316      -1.36860838       0.00000000
Si       0.07485255      -2.68042016      -2.61920310       0.00000000
Si       2.69508116      -0.01516599       2.68122957       0.00000000
Si      -0.00495216       2.71228502       2.68096699       0.00000000
Si      -2.69402393       2.71404434      -0.02441964       0.00000000
Si       0.05478327       2.74111832      -2.67819535       0.00000000
Si      -2.72046260      -0.03272661       2.70547415       0.00000000
