10
Lattice="16.290000149 0.0 0.0 0.0 16.290000149 0.0 0.0 0.0 29.1751946751" Properties=species:S:1:pos:R:3:initial_magmoms:R:1 pbc="T T T"
Si       1.39207825       1.43604496      -1.17549777       0.00000000
Si       1.70155568      -1.59710419       0.01493770       0.00000000
Si      -0.95693977       1.27228159       1.75272900       0.00000000
Si      -1.59205429      -0.81324568      -1.56314858       0.00000000
Si      -2.07182738       1.21661866      -2.61911558       0.00000000
Si      -0.17611119       2.71668332      -2.29801338       0.00000000
Si       0.63096058      -3.35526762      -1.05229092       0.00000000
Si      -2.40963311       2.68913693       0.53676523       0.00000000
Si      -0.29413224      -2.31132296      -2.88802335       0.00000000
Si       2.35538741      -2.02022066       2.14594352       0.00000000
