10
Lattice="16.290000149 0.0 0.0 0.0 16.290000149 0.0 0.0 0.0 29.1751946751" Properties=species:S:1:pos:R:3:initial_magmoms:R:1 pbc="T T T"
H       -0.91038295      -0.07226244       1.21500098       0.00000000
Si      -0.89021593       1.41908707      -1.59325738       0.00000000
Si       0.33787089      -2.12095802      -0.93030943       0.00000000
Si       1.88851601       1.34034121       0.38377051       0.00000000
H        0.99100216       0.35202690       2.45427573       0.00000000
H       -2.17738658      -1.83415628       0.78743850       0.00000000
Si       0.27359055       2.86876351       1.46275674       0.00000000
Si      -0.32755932       0.37901943      -3.60030655       0.00000000
Si      -1.72273268      -2.81790939      -1.83433201       0.00000000
Si       1.55927881      -3.43808598       0.59149790       0.00000000
