10
Lattice="16.290000149 0.0 0.0 0.0 16.290000149 0.0 0.0 0.0 29.1751946751" Properties=species:S:1:pos:R:3:initial_magmoms:R:1 pbc="T T T"
Si       1.12925213      -0.96920614      -0.30543511       0.00000000
Si      -1.86604558       1.65714914      -0.23378083       0.00000000
H       -1.16551041      -1.80419897       1.91202556       0.00000000
Si      -1.53166075       1.40519170       2.11409296       0.00000000
Si      -0.18717064      -2.67071294      -1.44376368       0.00000000
Si       2.41739367      -0.81148636       1.71801051       0.00000000
Si       2.60236662       0.23721498      -1.69502046       0.00000000
Si      -0.25483425       2.70200603      -1.70704064       0.00000000
Si      -1.09398102      -0.73769266       2.98199665       0.00000000
Si      -2.89752839      -0.07234389      -1.58470905       0.00000000
