10
Lattice="16.290000149 0.0 0.0 0.0 16.290000149 0.0 0.0 0.0 29.1751946751" Properties=species:S:1:pos:R:3:initial_magmoms:R:1 pbc="T T T"
Si       1.30841281      -1.42824205       1.29631225       0.00000000
Si      -1.34907265      -1.38631159      -1.32452466       0.00000000
Si       1.37696113       1.32771646      -1.35588800       0.00000000
Si      -1.29743335       1.35685927       1.41788529       0.00000000
Si       2.65991267      -0.08687457       2.61103405       0.00000000
Si      -2.66904974       2.69873174       0.06237657       0.00000000
Si       0.00985545       2.68651424      -2.68210482       0.00000000
Si      -2.68958817      -0.02743236      -2.68516822       0.00000000
Si      -2.62659962      -0.03924261       2.76242413       0.00000000
Si       0.03052746      -2.73588924      -2.66702125       0.00000000
