10
Lattice="16.290000149 0.0 0.0 0.0 16.290000149 0.0 0.0 0.0 29.1751946751" Properties=species:S:1:pos:R:3:initial_magmoms:R:1 pbc="T T T"
Si      -1.31088889       0.46398807      -0.60442251       0.00000000
H        0.58238380      -0.10668321      -2.32931837       0.00000000
Si       1.76884967      -0.62765371      -1.53417761       0.00000000
Si       1.09949356      -2.46736487      -0.06619852       0.00000000
Si      -2.57250053       0.70183837       1.33024300       0.00000000
Si      -2.29328993      -1.51754383      -1.48320855       0.00000000
Si       0.43536654      -2.15704037       2.23878774       0.00000000
Si      -1.35109261      -0.61528960       2.85205033       0.00000000
Si      -1.04169664       2.48660336      -1.80795764       0.00000000
Si       3.06625044       1.03944862      -0.35832974       0.00000000
