10
Lattice="16.290000149 0.0 0.0 0.0 16.290000149 0.0 0.0 0.0 29.1751946751" Properties=species:S:1:pos:R:3:initial_magmoms:R:1 pbc="T T T"
H       -1.12925213       0.96920614       0.30543511       0.00000000
H        1.50714430      -1.47041686      -0.63733213       0.00000000
Si       1.47311449       1.20642112      -1.38958535       0.00000000
Si       1.28814154       0.15771978       2.02344563       0.00000000
Si      -1.31642277      -1.70150681      -1.13832857       0.00000000
H       -2.29476255      -0.83499283       2.21746067       0.00000000
Si       2.11591789      -2.77586815      -0.19165185       0.00000000
Si       0.04684190       2.42313752      -2.77412339       0.00000000
Si      -2.59449855      -0.35119611      -2.63860461       0.00000000
Si       0.74860044       2.53703720       2.76076115       0.00000000
