10
Lattice="16.290000149 0.0 0.0 0.0 16.290000149 0.0 0.0 0.0 29.1751946751" Properties=species:S:1:pos:R:3:initial_magmoms:R:1 pbc="T T T"
Si       1.34830702      -1.34793235      -1.36499066       0.00000000
Si      -1.35479044      -1.37899738       1.33701165       0.00000000
Si      -1.35614251       1.33092559      -1.38625938       0.00000000
Si       1.36458073       1.33815835       1.37575630       0.00000000
Si      -2.72284094      -0.01746288       2.65602220       0.00000000
Si      -0.01814706       2.68190417       2.71145507       0.00000000
Si      -0.01133784      -2.71342532      -2.69502943       0.00000000
Si       2.68653053      -2.72380205      -0.01371234       0.00000000
Si      -2.73474894       2.67978647      -0.06605264       0.00000000
Si       2.70875009       2.71086779       0.01318719       0.00000000
