10
Lattice="16.290000149 0.0 0.0 0.0 16.290000149 0.0 0.0 0.0 29.1751946751" Properties=species:S:1:pos:R:3:initial_magmoms:R:1 pbc="T T T"
H       -0.64830943      -0.82604962       1.07729406       0.00000000
Si       1.23878935      -1.36464589      -1.41902312       0.00000000
Si      -1.57708378       1.08655930      -1.32481642       0.00000000
Si       1.27620748       1.46486197       1.29619555       0.00000000
H       -2.07660035      -1.72954190       0.52404485       0.00000000
Si      -3.17788581       1.01002888       0.46709487       0.00000000
H       -1.26501625      -2.46273851       2.18907321       0.00000000
Si       2.51279768      -0.02246391       2.65818116       0.00000000
Si      -0.27759789       2.67630041      -2.59942232       0.00000000
Si       2.58287013      -2.71951778      -0.08600847       0.00000000
