10
Lattice="16.290000149 0.0 0.0 0.0 16.290000149 0.0 0.0 0.0 29.1751946751" Properties=species:S:1:pos:R:3:initial_magmoms:R:1 pbc="T T T"
Si      -1.28795257      -1.44136365       1.28000332       0.00000000
Si       1.30161988      -1.41562545      -1.33952071       0.00000000
Si      -1.44285418       1.62760722      -0.92254883       0.00000000
Si       1.18949581       1.14676551       1.69382428       0.00000000
Si      -0.81225199       2.02956297       2.66246992       0.00000000
Si      -2.32630976       0.18045899       2.59224522       0.00000000
Si      -0.08215047       2.64299551      -2.54538986       0.00000000
Si       2.63708533       2.56390756       0.34841017       0.00000000
Si       0.23719869      -2.43666637       2.78771903       0.00000000
Si       1.76339252      -0.59298044       3.21221811       0.00000000
