10
Lattice="16.290000149 0.0 0.0 0.0 16.290000149 0.0 0.0 0.0 29.1751946751" Properties=species:S:1:pos:R:3:initial_magmoms:R:1 pbc="T T T"
Si      -1.27875850       1.37348322      -1.38683704       0.00000000
Si       1.30124521       1.32707301       1.42503321       0.00000000
Si      -1.41158064      -1.39046554       1.25669234       0.00000000
Si       1.32996448      -1.31408173      -1.41932071       0.00000000
Si       2.64767888       2.65738772       0.07890140       0.00000000
Si      -0.04644279      -2.73834902       2.62897679       0.00000000
Si       2.65860947      -2.70977636      -0.05023969       0.00000000
Si      -0.09655083      -2.67348224      -2.69853221       0.00000000
Si      -2.71092121       2.68034033      -0.03477975       0.00000000
Si      -2.69289667      -0.04554684       2.71262208       0.00000000
