10
Lattice="16.290000149 0.0 0.0 0.0 16.290000149 0.0 0.0 0.0 29.1751946751" Properties=species:S:1:pos:R:3:initial_magmoms:R:1 pbc="T T T"
Si      -1.30627882       1.42596145       1.30077751       0.00000000
Si       1.26397369       1.48393756      -1.32525404       0.00000000
Si       1.45269334      -1.41685534       1.21596376       0.00000000
Si      -1.37775934      -1.02791530      -1.63290647       0.00000000
Si       0.33780573      -1.47251827      -3.15588081       0.00000000
Si      -0.42363774       2.41232096      -2.63936316       0.00000000
Si       2.23352192       0.02754639      -2.83477862       0.00000000
Si      -2.22164651       0.81687835      -2.75842713       0.00000000
Si       2.40963311      -2.68913693      -0.53676523       0.00000000
Si      -2.60534117      -0.05830191       2.57476345       0.00000000
