10
Lattice="16.290000149 0.0 0.0 0.0 16.290000149 0.0 0.0 0.0 29.1751946751" Properties=species:S:1:pos:R:3:initial_magmoms:R:1 pbc="T T T"
Si       0.33438483      -0.25195743       2.34787379       0.00000000
Si      -1.68070448       1.69432292       0.25808377       0.00000000
Si       1.61121133       1.04485690      -1.47325981       0.00000000
Si      -1.03148281      -1.72949303      -1.35092821       0.00000000
H        1.86604558      -1.65714914       0.23378083       0.00000000
H        0.50510403       2.44877798       1.34205896       0.00000000
H       -1.11265588       0.03580542       2.76796742       0.00000000
Si      -2.18794250      -0.08404011      -2.57809525       0.00000000
Si       0.34360497       2.48375261      -2.83264883       0.00000000
Si      -3.56376333       0.88575247      -0.96030153       0.00000000
