10
Lattice="16.290000149 0.0 0.0 0.0 16.290000149 0.0 0.0 0.0 29.1751946751" Properties=species:S:1:pos:R:3:initial_magmoms:R:1 pbc="T T T"
Si       1.37112931      -1.35824229       1.32790899       0.00000000
Si       1.36596538       1.34941637      -1.34649358       0.00000000
Si      -1.35065278      -1.36889595      -1.34879843       0.00000000
Si      -1.35084826       1.34808059       1.37216776       0.00000000
Si       0.01956429      -2.70536015       2.67238948       0.00000000
Si       0.00317655       2.71640802      -2.68079194       0.00000000
Si      -2.73217511      -0.00865651      -2.67028887       0.00000000
Si      -2.71919198       2.69451426       0.00977369       0.00000000
Si       2.72609895       2.69220108       0.01677574       0.00000000
Si       2.72899856      -0.01250095      -2.69141171       0.00000000
