10
Lattice="16.290000149 0.0 0.0 0.0 16.290000149 0.0 0.0 0.0 29.1751946751" Properties=species:S:1:pos:R:3:initial_magmoms:R:1 pbc="T T T"
Si      -1.18949581      -1.14676551      -1.69382428       0.00000000
Si       0.57389671      -1.73974595       1.51839383       0.00000000
Si      -2.00174780       0.88279746       0.96864564       0.00000000
Si       1.44758952       1.41714205      -1.34541410       0.00000000
H        0.46924974       2.28365602       2.01037514       0.00000000
Si      -2.47744838      -2.58812916      -0.41382096       0.00000000
Si      -2.73403217       2.21375563      -0.82221534       0.00000000
Si      -2.63234999       0.48084171      -2.61637311       0.00000000
Si      -3.51580557      -0.96630652       0.89842094       0.00000000
H       -0.74917711       0.10823891       3.74635757       0.00000000
