10
Lattice="16.290000149 0.0 0.0 0.0 16.290000149 0.0 0.0 0.0 29.1751946751" Properties=species:S:1:pos:R:3:initial_magmoms:R:1 pbc="T T T"
Si      -2.19817425      -0.18847530      -0.64946901       0.00000000
Si       1.31320044      -0.26226900      -1.91345514       0.00000000
Si       0.51266097       0.91303822       2.09186146       0.00000000
Si       0.79193673      -2.26048187      -0.21610067       0.00000000
Si       0.77365935       2.11704842      -1.17613962       0.00000000
H        2.07347104      -2.22182570       0.60308045       0.00000000
H       -2.26970364      -1.25498161      -1.71944010       0.00000000
H        1.97086033       2.48285666      -0.28737567       0.00000000
H        3.36927539       0.45234072       0.16813665       0.00000000
Si      -2.63585397       1.95440906      -1.51737270       0.00000000
