10
Lattice="16.290000149 0.0 0.0 0.0 16.290000149 0.0 0.0 0.0 29.1751946751" Properties=species:S:1:pos:R:3:initial_magmoms:R:1 pbc="T T T"
Si      -1.33605694      -1.27860211       1.38205815       0.00000000
Si       1.23846355       1.30182351       1.48615524       0.00000000
Si       1.38098476      -1.35540946      -1.34007504       0.00000000
Si      -1.41301090       1.38293468      -1.29027298       0.00000000
Si       2.35221086       2.71423982      -0.05589967       0.00000000
Si      -0.02811654      -2.67630041      -2.69651737       0.00000000
Si       2.72339480       0.02186118      -2.65546787       0.00000000
Si      -2.74137897      -2.66119958       0.07585551       0.00000000
Si      -2.75646351       0.03987792      -2.67892473       0.00000000
Si      -0.11427435       2.72629442      -2.72440885       0.00000000
