10
Lattice="16.290000149 0.0 0.0 0.0 16.290000149 0.0 0.0 0.0 29.1751946751" Properties=species:S:1:pos:R:3:initial_magmoms:R:1 pbc="T T T"
Si      -1.35156502      -1.34711785       1.34448050       0.00000000
Si      -1.37112931       1.35824229      -1.32790899       0.00000000
Si       1.31170339       1.30470032       1.43964998       0.00000000
Si       1.36001953      -1.37740096      -1.33094321       0.00000000
Si       0.04634505      -2.79169878       2.54153873       0.00000000
Si       2.67815747       2.68542281       0.08198230       0.00000000
Si      -0.00516393       2.70765866      -2.67440257       0.00000000
Si       2.71829603      -0.00700470      -2.66713795       0.00000000
Si      -2.72178209      -0.01065366      -2.67670741       0.00000000
Si       0.00001629      -2.73631278      -2.68645193       0.00000000
