10
Lattice="16.290000149 0.0 0.0 0.0 16.290000149 0.0 0.0 0.0 29.1751946751" Properties=species:S:1:pos:R:3:initial_magmoms:R:1 pbc="T T T"
Si       1.36080145      -1.35123922      -1.32557497       0.00000000
Si      -1.17600769      -1.52731783       1.31941900       0.00000000
Si       1.54072450       1.31209435       1.18988114       0.00000000
Si      -1.03176626       1.54567666      -1.47991175       0.00000000
H        2.71813313      -0.77566465      -1.05126979       0.00000000
Si       0.13255173       2.49316823       2.65958157       0.00000000
Si      -1.39918232      -3.37921392      -0.11646738       0.00000000
Si       2.32357304       2.80894500      -0.51876414       0.00000000
Si       0.90847702      -3.55990260      -0.71587175       0.00000000
Si      -2.64210770      -0.31724775       2.65680993       0.00000000
