10
Lattice="16.290000149 0.0 0.0 0.0 16.290000149 0.0 0.0 0.0 29.1751946751" Properties=species:S:1:pos:R:3:initial_magmoms:R:1 pbc="T T T"
Si      -1.44560719       1.19317735       1.35719913       0.00000000
Si      -1.35819505      -1.34548885      -1.34130040       0.00000000
Si       1.27798309      -1.49522653       1.33879279       0.00000000
Si       1.31070970       1.36606312      -1.48650534       0.00000000
Si       2.16062417      -0.50886702      -2.60134788       0.00000000
Si       0.36261540      -2.10430964      -2.72041185       0.00000000
Si      -0.01909188       2.55257786       2.63641063       0.00000000
Si      -2.80320114       2.43551792      -0.09907896       0.00000000
Si       2.69156414      -0.19950363       2.68162343       0.00000000
Si      -2.79080934      -0.26837775       2.59145166       0.00000000
