10
Lattice="16.290000149 0.0 0.0 0.0 16.290000149 0.0 0.0 0.0 29.1751946751" Properties=species:S:1:pos:R:3:initial_magmoms:R:1 pbc="T T T"
Si       1.42213330       1.30653946       1.31594716       0.00000000
Si       1.37860642      -1.34886088      -1.32020673       0.00000000
Si      -1.34840476      -1.35853714       1.35229945       0.00000000
Si      -1.36270738       1.39165471      -1.30544409       0.00000000
Si       0.05892093       2.67512753       2.57824113       0.00000000
Si       0.00825903      -2.71147052      -2.64656943       0.00000000
Si       2.73132804       0.04202820      -2.64642356       0.00000000
Si       0.01259217       2.73051354      -2.64974953       0.00000000
Si      -2.71702541       0.03841182      -2.66518321       0.00000000
Si       2.73474894      -2.67978647       0.06605264       0.00000000
