10
Lattice="16.290000149 0.0 0.0 0.0 16.290000149 0.0 0.0 0.0 29.1751946751" Properties=species:S:1:pos:R:3:initial_magmoms:R:1 pbc="T T T"
H       -0.60877360       1.30545129      -0.44568027       0.00000000
Si      -0.84079207      -1.66244013      -1.39752100       0.00000000
Si       2.30420423       0.08458094      -0.35331161       0.00000000
Si      -0.75191383      -0.58363813       2.15432555       0.00000000
H        1.41333670       1.66669833      -1.84737333       0.00000000
Si       2.36532431      -1.98151236       0.93004686       0.00000000
Si      -2.22031725      -0.21393006      -2.55583458       0.00000000
Si      -2.11591789       2.77586815       0.19165185       0.00000000
Si       1.31756779      -1.30670399       2.99894744       0.00000000
Si      -3.43234066       1.07436135      -0.94667672       0.00000000
