10
Lattice="16.290000149 0.0 0.0 0.0 16.290000149 0.0 0.0 0.0 29.1751946751" Properties=species:S:1:pos:R:3:initial_magmoms:R:1 pbc="T T T"
Si      -1.35941680      -1.35496963      -1.35343728       0.00000000
Si       1.34900749      -1.36089919       1.36326932       0.00000000
Si      -1.36858807       1.35264016       1.35285378       0.00000000
Si       1.35544204       1.34320825      -1.37555208       0.00000000
Si       2.68996772       2.69462666       0.01808862       0.00000000
Si       0.01918962      -2.71472852      -2.68872759       0.00000000
Si      -2.69330555      -2.71228502       0.02663695       0.00000000
Si       2.71373483      -0.00531054       2.71008383       0.00000000
Si      -0.02081862       2.69047271      -2.73424089       0.00000000
Si      -2.71918873       2.71174745      -0.00685617       0.00000000
