10
Lattice="16.290000149 0.0 0.0 0.0 16.290000149 0.0 0.0 0.0 29.1751946751" Properties=species:S:1:pos:R:3:initial_magmoms:R:1 pbc="T T T"
Si       0.88259221      -0.84963754       0.89121467       0.00000000
H       -1.90138511      -0.42428934      -1.23927474       0.00000000
Si       0.89751385       0.98831431      -2.07050522       0.00000000
Si      -0.99100216      -0.35202690      -2.45427573       0.00000000
Si      -0.71741161       2.51673661      -0.99151899       0.00000000
Si      -1.45041274       2.17231387       1.27022963       0.00000000
Si       1.91454743      -2.33670278      -0.57734793       0.00000000
Si      -0.51144084      -2.08502228       2.31554768       0.00000000
Si       2.78207139       0.44852886       1.52040692       0.00000000
Si       2.83028979      -0.50393115      -1.75127024       0.00000000
