10
Lattice="16.290000149 0.0 0.0 0.0 16.290000149 0.0 0.0 0.0 29.1751946751" Properties=species:S:1:pos:R:3:initial_magmoms:R:1 pbc="T T T"
Si      -1.41315588       1.23178465      -1.37403497       0.00000000
Si      -1.31287301      -1.48369321       1.27262199       0.00000000
Si       1.50275251      -1.33745788      -1.24954441       0.00000000
Si       0.65967985       1.87639625       1.29815029       0.00000000
Si       0.04149063       2.60322347      -2.59953902       0.00000000
Si       0.24496902      -2.56771127       2.63594966       0.00000000
Si      -2.76301209       2.52861527       0.04548413       0.00000000
Si       0.06489936      -2.74351296      -2.56677528       0.00000000
Si      -2.69293963      -0.16843860      -2.69870551       0.00000000
Si      -0.99259858       3.53072721       1.20239730       0.00000000
