10
Lattice="16.290000149 0.0 0.0 0.0 16.290000149 0.0 0.0 0.0 29.1751946751" Properties=species:S:1:pos:R:3:initial_magmoms:R:1 pbc="T T T"
H       -1.13261113       0.06120153       1.00351000       0.00000000
Si       0.22485087      -2.13465791      -0.90892401       0.00000000
Si       2.06060357       0.69695137       0.90402258       0.00000000
Si      -0.22403637       1.50931738      -1.84013788       0.00000000
H       -0.45465390       0.98375311       2.62177052       0.00000000
H       -2.05335452       1.82988830       1.45263294       0.00000000
Si       2.33981417      -1.52243083      -1.90942897       0.00000000
H        2.43916688      -2.34908318       0.70933651       0.00000000
Si       3.32221521       0.45910107      -1.03064293       0.00000000
Si       1.72273268       2.81790939       1.83433201       0.00000000
