10
Lattice="16.290000149 0.0 0.0 0.0 16.290000149 0.0 0.0 0.0 29.1751946751" Properties=species:S:1:pos:R:3:initial_magmoms:R:1 pbc="T T T"
Si       1.33605694       1.27860211      -1.38205815       0.00000000
Si      -1.51940089       1.27285174       1.21392150       0.00000000
Si       1.04169664      -0.81752995       1.95202475       0.00000000
Si      -1.40532202      -1.38259747      -1.30620264       0.00000000
Si      -0.78713281      -2.10942470       2.59148667       0.00000000
Si      -2.43941123      -0.45509373       2.49573368       0.00000000
Si       2.57452049       2.58042562       0.10409709       0.00000000
Si      -0.07695396       2.66153679      -2.67233113       0.00000000
Si      -0.06719625      -2.71451675      -2.71227197       0.00000000
Si       2.71704170      -0.07680735      -2.72213319       0.00000000
