10
Lattice="16.290000149 0.0 0.0 0.0 16.290000149 0.0 0.0 0.0 29.1751946751" Properties=species:S:1:pos:R:3:initial_magmoms:R:1 pbc="T T T"
Si       1.46025272       1.17884215      -1.41535580       0.00000000
Si      -1.39554802      -1.32160771      -1.36470766       0.00000000
Si      -1.33037173       1.44026407       1.31366274       0.00000000
Si       1.38805462      -1.36028017       1.35596385       0.00000000
Si       0.14279814      -2.59310738      -2.56135744       0.00000000
Si       0.05807385       2.35234118      -2.87289017       0.00000000
H       -0.83986354       3.09625662      -1.89379981       0.00000000
Si      -2.67165776       0.02124216       2.67270166       0.00000000
Si       2.67999173       2.66896991      -0.01842414       0.00000000
Si      -2.61263909      -2.75634948       0.07693499       0.00000000
