10
Lattice="16.290000149 0.0 0.0 0.0 16.290000149 0.0 0.0 0.0 29.1751946751" Properties=species:S:1:pos:R:3:initial_magmoms:R:1 pbc="T T T"
Si      -1.55784204       1.08401806      -1.36332767       0.00000000
Si       1.38613240      -1.47758446      -1.21590541       0.00000000
Si      -0.84408265      -1.48827070       1.63456946       0.00000000
Si       0.42570657       1.81327250       1.48399628       0.00000000
H        0.35311833      -1.12246246       2.52333341       0.00000000
Si      -1.88195277       1.99396118       2.08340065       0.00000000
Si      -0.24496902       2.56771127      -2.63594966       0.00000000
Si      -3.04668615       2.15632361       0.06628604       0.00000000
Si       2.70492194      -0.12593799      -2.60315674       0.00000000
Si      -0.11956860      -2.81888679      -2.51577704       0.00000000
