10
Lattice="16.290000149 0.0 0.0 0.0 16.290000149 0.0 0.0 0.0 29.1751946751" Properties=species:S:1:pos:R:3:initial_magmoms:R:1 pbc="T T T"
Si       1.34221293       1.36133902       1.35434171       0.00000000
Si       1.36180980      -1.35158131      -1.35101574       0.00000000
Si      -1.33822351       1.37586970      -1.35127832       0.00000000
Si      -1.35202114      -1.34962651       1.37330559       0.00000000
Si      -2.69786837       0.01037673      -2.68131709       0.00000000
Si       2.66813912       0.00205254       2.72315432       0.00000000
Si      -0.00845451      -2.72091872      -2.67378989       0.00000000
Si       2.68444541      -2.71469594       0.02447799       0.00000000
Si      -2.68653053       2.72380205       0.01371234       0.00000000
Si      -2.67388949       0.02839347       2.73908398       0.00000000
