10
Lattice="16.290000149 0.0 0.0 0.0 16.290000149 0.0 0.0 0.0 29.1751946751" Properties=species:S:1:pos:R:3:initial_magmoms:R:1 pbc="T T T"
Si       1.34698753       1.33279894       1.38844751       0.00000000
Si       1.33037173      -1.44026407      -1.31366274       0.00000000
Si      -1.34128603      -1.41902191       1.35903892       0.00000000
Si      -1.42736239       1.36674730      -1.33452008       0.00000000
H        0.49050819       1.65599255      -3.20746255       0.00000000
Si      -2.76535785       2.52089381       0.22207866       0.00000000
Si       2.64976400       2.68667714      -0.04557165       0.00000000
Si      -2.73649197      -0.07973955      -2.70372364       0.00000000
Si      -0.06517629      -2.76187179      -2.67837040       0.00000000
Si       2.69509907      -0.05178591       2.75057900       0.00000000
