10
Lattice="16.290000149 0.0 0.0 0.0 16.290000149 0.0 0.0 0.0 29.1751946751" Properties=species:S:1:pos:R:3:initial_magmoms:R:1 pbc="T T T"
Si      -0.12536784       2.30414396       0.24054948       0.00000000
Si       1.60080202       0.07653042      -1.79191128       0.00000000
Si       0.28878912      -0.87948082       2.24333907       0.00000000
Si      -2.12657807      -0.97140529      -0.67986956       0.00000000
H        1.10128546      -2.73957078       0.05694998       0.00000000
H        2.52957638      -1.83607850       0.61019920       0.00000000
Si      -1.87636367       1.97491817       1.72868863       0.00000000
Si      -1.90744499      -0.16426836       2.71154259       0.00000000
Si       3.17788581      -1.01002888      -0.46709487       0.00000000
Si      -1.04179438      -2.38860272      -2.17839509       0.00000000
