10
Lattice="16.290000149 0.0 0.0 0.0 16.290000149 0.0 0.0 0.0 29.1751946751" Properties=species:S:1:pos:R:3:initial_magmoms:R:1 pbc="T T T"
Si      -0.27696910       0.82041328       2.15350864       0.00000000
Si       0.92001034       1.72794548      -1.28181218       0.00000000
Si       1.65227843      -1.65433097       0.09575299       0.00000000
Si      -1.77041351      -1.00211194      -1.15691317       0.00000000
Si      -0.42055730      -2.29894256      -2.57643227       0.00000000
Si      -2.54523107       1.30785895       2.03284004       0.00000000
Si       2.43941123       0.45509373      -2.49573368       0.00000000
Si       3.48110787      -0.36243621      -0.54370893       0.00000000
Si       1.00888858       2.80674748       2.27003437       0.00000000
Si       2.11559861      -2.07650261       2.30784542       0.00000000
