10
Lattice="16.290000149 0.0 0.0 0.0 16.290000149 0.0 0.0 0.0 29.1751946751" Properties=species:S:1:pos:R:3:initial_magmoms:R:1 pbc="T T T"
Si      -1.34643367      -1.33031472       1.34613181       0.00000000
Si       1.31541751      -1.32303309      -1.40071277       0.00000000
Si      -1.20291877       1.39729105      -1.44107957       0.00000000
Si       1.42853527       1.40383963       1.24235564       0.00000000
Si       2.30418794       0.46418355      -2.55310378       0.00000000
Si       0.67116430       2.19950840      -2.63680829       0.00000000
Si      -2.64767888      -2.65738772      -0.07890140       0.00000000
Si      -2.70252731       0.06455727       2.63512109       0.00000000
Si       2.69806385      -2.64728889      -0.03489062       0.00000000
Si       0.05036868       2.75268423       2.59211685       0.00000000
