10
Lattice="16.290000149 0.0 0.0 0.0 16.290000149 0.0 0.0 0.0 29.1751946751" Properties=species:S:1:pos:R:3:initial_magmoms:R:1 pbc="T T T"
H        1.23217561      -1.96884200       0.20489739       0.00000000
Si       1.88392223       0.70185466       1.25955150       0.00000000
H       -1.98834113      -0.62652970      -1.13937888       0.00000000
Si      -0.75950497      -1.88661008       1.25943480       0.00000000
Si       0.66412702      -0.31032450      -2.30498626       0.00000000
Si      -1.78645916       1.54175077       0.61326259       0.00000000
H       -2.62930376      -0.18715581      -1.10323081       0.00000000
H        2.33500862       1.98594650       0.59543655       0.00000000
H        2.84993553       0.44413056      -1.22101107       0.00000000
H       -0.43536654       2.15704037      -2.23878774       0.00000000
