10
Lattice="16.290000149 0.0 0.0 0.0 16.290000149 0.0 0.0 0.0 29.1751946751" Properties=species:S:1:pos:R:3:initial_magmoms:R:1 pbc="T T T"
Si       0.73228438      -1.33095817       1.79086097       0.00000000
Si      -1.75404206       0.96886405       1.25890965       0.00000000
Si       1.47126394       1.80175547      -0.66414413       0.00000000
Si       0.10168218      -1.73291393      -1.79415777       0.00000000
H       -2.17357472      -0.37690173      -1.38182475       0.00000000
Si       2.90354592       0.55369711      -2.02347480       0.00000000
Si       2.73403217      -2.21375563       0.82221534       0.00000000
Si      -0.78177340      -3.18006215       1.72063628       0.00000000
Si       1.46238589      -0.71752564      -3.41699880       0.00000000
Si      -2.88554547       0.48342204      -2.40231470       0.00000000
