10
Lattice="16.290000149 0.0 0.0 0.0 16.290000149 0.0 0.0 0.0 29.1751946751" Properties=species:S:1:pos:R:3:initial_magmoms:R:1 pbc="T T T"
Si      -1.30867345      -1.28936980       1.47041522       0.00000000
Si      -1.34915410       1.36260964      -1.37554333       0.00000000
Si       1.43135344      -1.37173204      -1.28412285       0.00000000
Si       1.37233477       1.40585959       1.31164381       0.00000000
Si      -2.62086554      -2.64930788       0.12527829       0.00000000
Si       2.64844451       0.06300972      -2.72576550       0.00000000
Si       2.74623339      -2.63528219       0.18821793       0.00000000
Si      -2.71243163       2.71039538       0.01454092       0.00000000
Si       2.71155197       0.07017732       2.73416796       0.00000000
Si      -2.73825129      -0.01607823      -2.71695459       0.00000000
