10
Lattice="16.290000149 0.0 0.0 0.0 16.290000149 0.0 0.0 0.0 29.1751946751" Properties=species:S:1:pos:R:3:initial_magmoms:R:1 pbc="T T T"
Si      -1.03195522       1.48706524       1.46856260       0.00000000
Si       0.91574236       1.83277163      -1.17392231       0.00000000
Si      -1.34627077      -1.45341010      -1.28542990       0.00000000
Si       1.50262219      -1.30886893       1.29759596       0.00000000
H       -1.91454743       2.33670278       0.57734793       0.00000000
H        2.77519701      -1.00921438      -1.30325595       0.00000000
Si       2.32411061      -2.29330622      -0.63914099       0.00000000
Si       0.44018838      -2.99516088      -1.89869249       0.00000000
Si       0.86752396       2.78523165       2.09775485       0.00000000
Si       2.47938689       2.61120557       0.41813889       0.00000000
