10
Lattice="16.290000149 0.0 0.0 0.0 16.290000149 0.0 0.0 0.0 29.1751946751" Properties=species:S:1:pos:R:3:initial_magmoms:R:1 pbc="T T T"
Si       1.46878288      -1.29764545       1.26655355       0.00000000
Si      -1.39893634      -1.41939984      -1.26156459       0.00000000
Si      -1.22890132       1.42778268       1.42818413       0.00000000
Si       1.38334681       1.33587449      -1.38325433       0.00000000
Si      -2.55451637       2.68480054      -0.06876593       0.00000000
Si       0.15486903      -2.63083828       2.63405328       0.00000000
Si       0.03033198      -2.70111334      -2.67454845       0.00000000
Si      -2.66115071      -0.05196673      -2.71551042       0.00000000
Si       2.70235790       0.06040332       2.71282630       0.00000000
Si       2.76608927       2.69579629      -0.04965618       0.00000000
