10
Lattice="16.290000149 0.0 0.0 0.0 16.290000149 0.0 0.0 0.0 29.1751946751" Properties=species:S:1:pos:R:3:initial_magmoms:R:1 pbc="T T T"
Si       1.82065187      -0.88519861       1.14649763       0.00000000
Si      -0.87474043       1.78243553       1.28216228       0.00000000
Si       1.12630690       1.43394355      -1.55503788       0.00000000
Si      -1.03140136      -2.15334254      -0.38455824       0.00000000
H       -1.92226889      -0.57122515      -1.87861996       0.00000000
Si       2.61211781       2.46436751      -0.09126001       0.00000000
Si      -1.95392036       0.61512670       2.98908622       0.00000000
Si      -0.08247627      -2.59278973      -2.53859204       0.00000000
Si       0.99994537       3.24592914       1.43982503       0.00000000
Si       3.58639014       0.60191551       0.80418507       0.00000000
