10
Lattice="16.290000149 0.0 0.0 0.0 16.290000149 0.0 0.0 0.0 29.1751946751" Properties=species:S:1:pos:R:3:initial_magmoms:R:1 pbc="T T T"
Si      -1.41760468       1.44430399       1.12978024       0.00000000
Si      -1.34561917      -1.31419576      -1.39871718       0.00000000
Si       1.40193370      -1.26381079       1.41228365       0.00000000
Si       1.35907471       1.38517129      -1.34328431       0.00000000
H       -0.57003598       2.38130480       1.93297335       0.00000000
Si      -2.75514402      -2.63106308      -0.08437466       0.00000000
Si       0.02243133      -2.67573026      -2.71772773       0.00000000
Si       2.74105317      -2.67610493       0.08367446       0.00000000
Si       2.74180251       0.04142547      -2.67898308       0.00000000
Si      -2.71311581       2.73227285      -0.30237172       0.00000000
