10
Lattice="16.290000149 0.0 0.0 0.0 16.290000149 0.0 0.0 0.0 29.1751946751" Properties=species:S:1:pos:R:3:initial_magmoms:R:1 pbc="T T T"
Si      -1.22505688       1.85292236       0.66913309       0.00000000
Si      -1.53297046      -0.71871481      -1.61417600       0.00000000
Si       1.62816922       0.67654000      -1.55177025       0.00000000
Si       0.07574850      -1.45893241       1.93180634       0.00000000
H        0.33821298      -2.56538343      -0.88575891       0.00000000
H        0.07084521       2.40624479       1.58701389       0.00000000
H        1.55663983      -0.38996631      -2.62174134       0.00000000
Si      -2.75099007      -2.03849804      -0.11576717       0.00000000
H       -0.25655121       3.10718721      -1.99958032       0.00000000
Si       2.32171598      -1.96348259       2.20882481       0.00000000
