10
Lattice="16.290000149 0.0 0.0 0.0 16.290000149 0.0 0.0 0.0 29.1751946751" Properties=species:S:1:pos:R:3:initial_magmoms:R:1 pbc="T T T"
Si       0.46332018      -0.42217164       2.21209244       0.00000000
Si       1.82882945       1.29189475      -0.63946192       0.00000000
Si      -1.65227843       1.65433097      -0.09575299       0.00000000
Si      -0.65967985      -1.87639625      -1.29815029       0.00000000
H        1.82065187       0.15340293       2.48639762       0.00000000
Si       0.78713281       2.10942470      -2.59148667       0.00000000
Si      -2.07283573      -0.64461160      -2.67218526       0.00000000
Si      -3.42269193       0.65221903      -1.25266616       0.00000000
Si      -0.73226809       3.38227644      -1.37756517       0.00000000
Si       3.64997001      -0.16716798      -0.80637321       0.00000000
