10
Lattice="16.290000149 0.0 0.0 0.0 16.290000149 0.0 0.0 0.0 29.1751946751" Properties=species:S:1:pos:R:3:initial_magmoms:R:1 pbc="T T T"
Si      -1.38761479      -1.27482283      -1.37750040       0.00000000
Si       1.20291877      -1.39729105       1.44107957       0.00000000
Si      -1.41926626       1.38192958       1.28379026       0.00000000
Si       1.87408307       0.80221735      -1.19572872       0.00000000
Si       2.51833628      -2.72032414       0.04036680       0.00000000
Si       2.63145404       0.00654858       2.68343521       0.00000000
Si       2.68338656       2.66163941      -0.01432502       0.00000000
Si       3.50710671      -0.93310750      -1.11202422       0.00000000
Si      -0.09928755       2.72305271       2.67792110       0.00000000
Si      -2.72351861      -2.68119556      -0.02465887       0.00000000
