10
Lattice="16.290000149 0.0 0.0 0.0 16.290000149 0.0 0.0 0.0 29.1751946751" Properties=species:S:1:pos:R:3:initial_magmoms:R:1 pbc="T T T"
Si       0.52295462      -0.68499451       2.22291643       0.00000000
Si      -2.00762849       1.36498798       0.07996921       0.00000000
Si       1.15930881       2.05139972      -0.60471426       0.00000000
Si      -1.21233439      -1.59347152      -1.39477853       0.00000000
Si       2.19717893      -1.43083216      -1.05354545       0.00000000
H       -1.04161519       1.10726389      -2.40059337       0.00000000
H       -2.65937510      -1.30570867      -0.97468490       0.00000000
H       -1.55654209       2.64907982      -0.58414575       0.00000000
Si      -0.00542457       2.21376215      -2.62182887       0.00000000
H        3.39437991      -1.06502392      -0.16478150       0.00000000
