10
Lattice="16.290000149 0.0 0.0 0.0 16.290000149 0.0 0.0 0.0 29.1751946751" Properties=species:S:1:pos:R:3:initial_magmoms:R:1 pbc="T T T"
Si      -1.36412461      -1.36078516       1.32954280       0.00000000
Si       1.33636645      -1.44130663      -1.28820155       0.00000000
Si       1.38036574       1.34399017       1.35577130       0.00000000
Si      -1.38455227       1.35685927      -1.33902473       0.00000000
Si       2.69215058      -0.10072107      -2.60313049       0.00000000
Si       0.01989009      -2.69905754       2.67825370       0.00000000
Si      -2.71453304       0.00285075       2.68578090       0.00000000
Si      -0.03463254       2.75222714      -2.64900556       0.00000000
Si      -2.69865029      -2.71220357      -0.06409790       0.00000000
Si      -2.70945056       2.70767495       0.04492980       0.00000000
