10
Lattice="16.290000149 0.0 0.0 0.0 16.290000149 0.0 0.0 0.0 29.1751946751" Properties=species:S:1:pos:R:3:initial_magmoms:R:1 pbc="T T T"
Si       1.29951847      -1.37741725       1.38296258       0.00000000
Si      -1.32186835       1.37801998       1.36577839       0.00000000
Si      -1.37852497      -1.38453598      -1.30696120       0.00000000
Si       1.35202114       1.34962651      -1.37330559       0.00000000
Si      -2.63834471      -0.02849121       2.69745097       0.00000000
Si      -2.68929983       2.69443118      -0.02258160       0.00000000
Si      -0.00690696      -2.72207531      -2.67291464       0.00000000
Si       2.68226093      -0.01749546       2.71656073       0.00000000
Si      -2.70171281      -0.01951542      -2.70007674       0.00000000
Si       2.69423408       2.71096553      -0.01896388       0.00000000
