10
Lattice="16.290000149 0.0 0.0 0.0 16.290000149 0.0 0.0 0.0 29.1751946751" Properties=species:S:1:pos:R:3:initial_magmoms:R:1 pbc="T T T"
Si       0.45232443       2.20866338      -0.60970322       0.00000000
Si       1.07380423       0.08635329       2.10023474       0.00000000
Si      -0.42570657      -1.81327250      -1.48399628       0.00000000
Si      -2.30765934       0.18068868       0.59940437       0.00000000
H        2.73039950       1.01555119      -0.78452098       0.00000000
H       -0.07258824      -2.93573496       1.03933714       0.00000000
H        1.80965612       2.78423796      -0.33539804       0.00000000
Si      -1.26978922      -3.30154320       0.15057318       0.00000000
Si      -1.98354861      -0.72925444      -2.84732395       0.00000000
Si      -2.08448471       2.03258477       2.03529076       0.00000000
