10
Lattice="16.290000149 0.0 0.0 0.0 16.290000149 0.0 0.0 0.0 29.1751946751" Properties=species:S:1:pos:R:3:initial_magmoms:R:1 pbc="T T T"
Si       1.34520215       1.46155510      -1.23425253       0.00000000
Si       1.38506378      -1.33986880       1.37169804       0.00000000
Si      -1.36059946       1.45797130       1.28651522       0.00000000
Si      -1.21973901      -1.49012776      -1.39693166       0.00000000
Si      -2.67999173      -2.66896991       0.01842414       0.00000000
Si      -2.66337593       0.10409310       2.72053439       0.00000000
Si      -0.01239180       2.70389567      -2.69053062       0.00000000
Si       2.79080934       0.26837775      -2.59145166       0.00000000
Si       0.03912044      -2.66875814       2.75251040       0.00000000
Si       0.03017234       2.74457181       2.72097202       0.00000000
