10
Lattice="16.290000149 0.0 0.0 0.0 16.290000149 0.0 0.0 0.0 29.1751946751" Properties=species:S:1:pos:R:3:initial_magmoms:R:1 pbc="T T T"
Si      -1.22140792       1.31712796      -1.52180733       0.00000000
Si       1.34627077       1.45341010       1.28542990       0.00000000
Si      -1.61604946      -1.03715173       1.38608432       0.00000000
Si       1.78645916      -1.54175077      -0.61326259       0.00000000
H       -0.84284461      -1.72890659      -1.71649340       0.00000000
H       -0.20188197      -2.16828047      -1.75264147       0.00000000
H        1.35109261       0.61528960      -2.85205033       0.00000000
Si      -0.04786002      -2.31779009       2.50859994       0.00000000
Si       0.04020372       1.07927767      -3.45647284       0.00000000
Si       1.02695419      -3.42836085       0.64617221       0.00000000
