10
Lattice="16.290000149 0.0 0.0 0.0 16.290000149 0.0 0.0 0.0 29.1751946751" Properties=species:S:1:pos:R:3:initial_magmoms:R:1 pbc="T T T"
Si       1.26161164      -0.23785029      -1.93466551       0.00000000
Si      -0.33787089       2.12095802       0.93030943       0.00000000
Si       1.22140792      -1.31712796       1.52180733       0.00000000
Si      -2.06060357      -0.69695137      -0.90402258       0.00000000
H        2.57250053      -0.70183837      -1.33024300       0.00000000
H       -2.51525747       0.28680174       1.71774794       0.00000000
H        0.37856331      -3.04603455      -0.19468607       0.00000000
H       -1.24825384       2.04869558       2.14531041       0.00000000
H       -3.19321470      -0.63574984       0.09948741       0.00000000
Si       0.27921060      -2.21938220      -2.81345155       0.00000000
