10
Lattice="16.290000149 0.0 0.0 0.0 16.290000149 0.0 0.0 0.0 29.1751946751" Properties=species:S:1:pos:R:3:initial_magmoms:R:1 pbc="T T T"
Si      -1.23878935       1.36464589       1.41902312       0.00000000
Si       1.34408078      -1.35487189       1.33301464       0.00000000
Si       1.34922488       1.40831938      -1.30769058       0.00000000
Si      -1.38627901      -1.36102951      -1.33318970       0.00000000
H       -1.88709878       0.53859627       2.49631718       0.00000000
Si      -2.81587314       2.45120519       0.09420670       0.00000000
Si       2.62386453       0.04535136       2.65768518       0.00000000
Si      -0.08711892       2.75923281      -2.59338305       0.00000000
Si       2.68864986       0.04634505      -2.68017926       0.00000000
Si      -0.00355122      -2.70477533      -2.66888846       0.00000000
