10
Lattice="16.290000149 0.0 0.0 0.0 16.290000149 0.0 0.0 0.0 29.1751946751" Properties=species:S:1:pos:R:3:initial_magmoms:R:1 pbc="T T T"
Si      -1.34496431       1.36084544      -1.35617975       0.00000000
Si       1.35627283       1.36245977       1.34987791       0.00000000
Si      -1.37536471      -1.34768800       1.35110327       0.00000000
Si       1.31771440      -1.37011933      -1.38888514       0.00000000
Si       0.01283652      -2.69721677       2.68120039       0.00000000
Si      -2.65925782      -0.02269197      -2.71953660       0.00000000
Si      -0.03334563       2.71497287       2.68111287       0.00000000
Si       2.70456356      -0.01159848      -2.69421253       0.00000000
Si      -2.68937337      -2.71381628      -0.04320846       0.00000000
Si       2.69990462       2.71599914      -0.01823450       0.00000000
