10
Lattice="10.86 0.0 0.0 0.0 10.86 0.0 0.0 0.0 10.86" Properties=species:S:1:pos:R:3:initial_magmoms:R:1 pbc="T T T"
Si       1.43726670       1.15533024       1.36400514       0.00000000
Si      -1.27773330      -1.55966976       1.36400514       0.00000000
Si       1.43726670      -1.55966976      -1.35099486       0.00000000
Si       0.23411988       2.62527468      -2.51406828       0.00000000
Si       0.25360272       2.26984860       2.92665054       0.00000000
Si       2.79476670       2.51283024       0.00650514       0.00000000
Si      -2.60827878      -0.40557756      -2.70968946       0.00000000
Si       2.79476670      -0.20216976      -2.70849486       0.00000000
Si       2.79476670      -0.20216976       2.72150514       0.00000000
Si      -2.63523330      -2.91716976       0.00650514       0.00000000
