10
Lattice="10.86 0.0 0.0 0.0 10.86 0.0 0.0 0.0 10.86" Properties=species:S:1:pos:R:3:initial_magmoms:R:1 pbc="T T T"
Si      -1.36618800       1.17532350      -1.32313896       0.00000000
Si       1.34881200       1.17532350       1.39186104       0.00000000
Si      -1.36618800      -1.53967650       1.39186104       0.00000000
Si      -2.50849710      -0.27833094      -2.52598170       0.00000000
Si       2.59485582      -0.30145188      -2.52997818       0.00000000
Si      -0.00868800       2.53282350      -2.68063896       0.00000000
Si       2.70631200       2.53282350       0.03436104       0.00000000
Si      -2.72368800       2.53282350       0.03436104       0.00000000
Si      -0.00868800       2.53282350       2.74936104       0.00000000
Si       2.70631200      -0.18217650       2.74936104       0.00000000
