10
Lattice="16.28999089631971 0.0 0.0 0.0 16.28999089631971 0.0 0.0 0.0 34.51007289658418" Properties=species:S:1:pos:R:3:initial_magmoms:R:1 pbc="T T T"
Si      -1.24882398      -1.44399447      -1.32836247       0.00000000
Si       1.02944655      -1.71506007       1.30813955       0.00000000
Si      -1.76389749       1.07290827       1.29164373       0.00000000
Si       1.58965965       1.31494509      -1.30651758       0.00000000
Si      -2.56352472      -0.07260453      -2.80960464       0.00000000
Si      -2.34299884      -2.99604051       0.18169564       0.00000000
Si      -2.60748328       2.80815165      -0.05186867       0.00000000
Si       1.91159892      -0.31363137       3.33950711       0.00000000
Si       0.16148277       2.65862574      -2.79624924       0.00000000
Si       0.14750595      -2.77431732      -2.79952770       0.00000000
