10
Lattice="16.28999089631971 0.0 0.0 0.0 16.28999089631971 0.0 0.0 0.0 34.51007289658418" Properties=species:S:1:pos:R:3:initial_magmoms:R:1 pbc="T T T"
Si       0.84358579      -1.73524338       1.34351240       0.00000000
Si       1.39141849       1.28803989      -1.39948777       0.00000000
Si      -1.30011337      -1.43861877      -1.41225650       0.00000000
Si      -1.00049922       1.71764433       1.42091854       0.00000000
Si       1.76688670      -0.25311402       2.94702383       0.00000000
Si       2.62698241       1.63174554       1.67197946       0.00000000
Si      -2.76693699       2.53428973       0.14228511       0.00000000
Si      -2.84970648      -2.44177326       0.16923749       0.00000000
Si       0.02524624       2.57221611      -2.76826155       0.00000000
Si      -1.28942469      -2.87914347       2.12716757       0.00000000
