10
Lattice="16.28999089631971 0.0 0.0 0.0 16.28999089631971 0.0 0.0 0.0 34.51007289658418" Properties=species:S:1:pos:R:3:initial_magmoms:R:1 pbc="T T T"
Si      -2.06145063       0.40578879       0.91965945       0.00000000
Si      -0.65660103      -0.64840457      -2.14459517       0.00000000
Si       0.85641417       2.18704001      -0.40683948       0.00000000
Si       0.95417046      -1.95947264       1.01231904       0.00000000
Si       2.04325470       2.01894350       1.60026748       0.00000000
Si      -1.17253791      -2.91248651       1.54480977       0.00000000
Si       1.36691019      -0.31924816      -3.24474240       0.00000000
Si      -3.01957956      -1.71315155       0.68074608       0.00000000
Si      -3.09829284       1.75441019      -0.60975882       0.00000000
Si       1.91203875       1.88934026      -2.51223118       0.00000000
