10
Lattice="16.28999089631971 0.0 0.0 0.0 16.28999089631971 0.0 0.0 0.0 34.51007289658418" Properties=species:S:1:pos:R:3:initial_magmoms:R:1 pbc="T T T"
Si       1.35773892      -1.35604476       1.35966312       0.00000000
Si      -1.35654975       1.35861858       1.36042234       0.00000000
Si       1.36612827       1.37404521      -1.34868546       0.00000000
Si      -1.36643778      -1.35900954      -1.36652373       0.00000000
Si       2.68959303      -0.01308087      -2.70141205       0.00000000
Si      -0.02974554       2.69021205      -2.71361482       0.00000000
Si      -2.71120986      -2.71593396       0.00217414       0.00000000
Si      -2.71418441       0.00009774       2.71725564       0.00000000
Si      -0.00016290      -2.71432125       2.71746270       0.00000000
Si      -2.71433265       2.71767699       0.00017255       0.00000000
