10
Lattice="16.28999089631971 0.0 0.0 0.0 16.28999089631971 0.0 0.0 0.0 34.51007289658418" Properties=species:S:1:pos:R:3:initial_magmoms:R:1 pbc="T T T"
Si      -1.34884458      -1.34993601      -1.37212127       0.00000000
Si       1.36642149       1.36231641      -1.36898085       0.00000000
Si       1.28883222      -1.46201121       1.38064526       0.00000000
Si      -1.26460899       1.38186441       1.50477806       0.00000000
Si       2.21332230       0.29895408       2.60623667       0.00000000
Si       0.70710003       2.18615058       2.74976415       0.00000000
Si      -2.70676269      -2.70739800       0.01176794       0.00000000
Si      -2.69278587       2.72554506       0.01504640       0.00000000
Si      -2.70596448       0.00452862      -2.73005888       0.00000000
Si       0.00711873      -2.70847314      -2.73002437       0.00000000
