10
Lattice="16.28999089631971 0.0 0.0 0.0 16.28999089631971 0.0 0.0 0.0 34.51007289658418" Properties=species:S:1:pos:R:3:initial_magmoms:R:1 pbc="T T T"
Si      -1.60845831       1.35821133      -1.05935630       0.00000000
Si      -0.75424329      -2.26672811      -0.32439487       0.00000000
Si       0.78245757       1.27465992       1.91751876       0.00000000
Si       2.06866710      -0.20365758      -1.28066952       0.00000000
Si      -0.56922147       0.61217820      -3.02066837       0.00000000
Si      -0.71205219      -2.55229181       2.01880588       0.00000000
Si       1.63232316       3.05533611       0.49266608       0.00000000
Si       2.31907698       2.11217769      -1.60523694       0.00000000
Si       1.21209003      -3.55929074      -0.74503838       0.00000000
Si       1.60000380      -2.37790736       2.71080225       0.00000000
