10
Lattice="16.28999089631971 0.0 0.0 0.0 16.28999089631971 0.0 0.0 0.0 34.51007289658418" Properties=species:S:1:pos:R:3:initial_magmoms:R:1 pbc="T T T"
Si       1.03923684      -0.74603313      -1.96131207       0.00000000
Si       1.60845831      -1.35821133       1.05935630       0.00000000
Si      -2.18916423      -0.90321534      -0.12730773       0.00000000
Si      -0.70263657       2.26712817       0.30572491       0.00000000
Si      -0.86294646      -0.34288821      -3.32729054       0.00000000
Si      -2.81272914       0.32263974      -2.05738817       0.00000000
Si       2.41232094       1.12633947      -2.33885248       0.00000000
Si      -2.58408270       2.48950296      -1.11267439       0.00000000
Si       0.85421502      -3.62493944       0.73496143       0.00000000
Si       2.39091588      -0.08355141       2.97687506       0.00000000
