10
Lattice="16.28999089631971 0.0 0.0 0.0 16.28999089631971 0.0 0.0 0.0 34.51007289658418" Properties=species:S:1:pos:R:3:initial_magmoms:R:1 pbc="T T T"
Si       1.57954356       1.05132402      -1.48207042       0.00000000
Si      -1.88273304       1.55123154      -0.25554723       0.00000000
Si      -1.11974202      -1.72786401      -1.34437515       0.00000000
Si       1.57263660      -0.34881777       2.18428177       0.00000000
Si      -2.71961550       0.51049602       1.79845894       0.00000000
Si      -1.31087259       2.53425159       2.16864870       0.00000000
Si       0.26091693       2.40541398      -2.80477323       0.00000000
Si      -2.42450586      -0.33767541      -2.80560147       0.00000000
Si       2.66771556       2.71668330      -0.23249449       0.00000000
Si       3.33490509       1.26006408       1.45584275       0.00000000
