10
Lattice="16.28999089631971 0.0 0.0 0.0 16.28999089631971 0.0 0.0 0.0 34.51007289658418" Properties=species:S:1:pos:R:3:initial_magmoms:R:1 pbc="T T T"
Si       1.14437250      -0.27629469       2.16022824       0.00000000
Si      -1.40874291      -2.02375557      -0.37018976       0.00000000
Si      -1.53528363       1.78181649      -1.01318180       0.00000000
Si      -0.57186045      -0.98302005      -2.42419594       0.00000000
Si       1.97105742       1.47044943      -1.55909694       0.00000000
Si      -2.51613711       0.78962517       2.19228812       0.00000000
Si       0.29753685       1.18498347      -3.33860985       0.00000000
Si       1.31087259      -2.53425159      -2.16864870       0.00000000
Si       2.82901914       1.37215557       1.90340413       0.00000000
Si      -0.70460766       3.68347851       0.17068692       0.00000000
