10
Lattice="16.28999089631971 0.0 0.0 0.0 16.28999089631971 0.0 0.0 0.0 34.51007289658418" Properties=species:S:1:pos:R:3:initial_magmoms:R:1 pbc="T T T"
Si       1.74589704      -0.07972326       1.51461344       0.00000000
Si      -1.41333669      -1.72506213       0.73061316       0.00000000
Si       0.79913853      -0.67588839      -2.10332110       0.00000000
Si      -0.52499412       2.34220878       0.11826609       0.00000000
Si       3.09913992       1.18076436      -0.05866716       0.00000000
Si      -2.86137108       0.39003147      -2.07126122       0.00000000
Si       2.48378517       0.97256187      -2.36014520       0.00000000
Si      -0.89564049       2.45894292       2.45753268       0.00000000
Si      -3.29478282      -1.50268734      -0.68778614       0.00000000
Si       1.09990080       1.35467640       3.29875069       0.00000000
