10
Lattice="16.28999089631971 0.0 0.0 0.0 16.28999089631971 0.0 0.0 0.0 34.51007289658418" Properties=species:S:1:pos:R:3:initial_magmoms:R:1 pbc="T T T"
Si       1.83803328       1.33064865       0.51040426       0.00000000
Si       0.64599624      -1.43439966      -1.78413726       0.00000000
Si      -0.50955120      -0.63649917       2.23863517       0.00000000
Si      -1.99554129       1.10426652      -0.84121801       0.00000000
Si      -3.47250672      -0.42536448       0.23739492       0.00000000
Si      -2.72178207       0.08371431       2.40946013       0.00000000
Si      -1.62489492       0.98753238      -3.18048461       0.00000000
Si      -1.09990080      -1.35467640      -3.29875069       0.00000000
Si       1.49923386       2.29920318       2.54836325       0.00000000
Si       2.10518928       3.05646012      -0.93774273       0.00000000
