10
Lattice="16.28999089631971 0.0 0.0 0.0 16.28999089631971 0.0 0.0 0.0 34.51007289658418" Properties=species:S:1:pos:R:3:initial_magmoms:R:1 pbc="T T T"
Si      -1.14867306      -1.49755599       1.44514462       0.00000000
Si      -1.03923684       1.41649695      -1.60371849       0.00000000
Si       1.95027138       0.98673417       0.98277841       0.00000000
Si       1.30816845      -1.38658851      -1.46605774       0.00000000
Si       0.64071828      -0.53110287       2.99261166       0.00000000
Si       2.16171558       0.31801338      -2.84166452       0.00000000
Si       0.65355480       2.12149557      -3.00517334       0.00000000
Si      -2.55137238       0.40764096      -3.06670483       0.00000000
Si       1.57791456       2.83416678       2.36763389       0.00000000
Si      -3.49915716      -1.82625561       0.83769798       0.00000000
