10
Lattice="16.28999089631971 0.0 0.0 0.0 16.28999089631971 0.0 0.0 0.0 34.51007289658418" Properties=species:S:1:pos:R:3:initial_magmoms:R:1 pbc="T T T"
Si      -1.81087785      -0.97694388       1.16109205       0.00000000
Si       1.42372971      -1.29000510      -1.42167776       0.00000000
Si      -1.28883222       1.45220463      -1.43969203       0.00000000
Si       1.90107558       0.50057541       1.60651381       0.00000000
Si      -0.36776304       0.28419534       2.61234496       0.00000000
Si      -3.31710012       0.91025262       1.30461952       0.00000000
Si       2.63744874       2.64691323       0.11277898       0.00000000
Si       0.06061509      -2.62658331      -2.81243447       0.00000000
Si      -2.68680744       2.76643296      -0.05003963       0.00000000
Si      -2.73536793      -2.73790917      -0.06449936       0.00000000
