10
Lattice="16.28999089631971 0.0 0.0 0.0 16.28999089631971 0.0 0.0 0.0 34.51007289658418" Properties=species:S:1:pos:R:3:initial_magmoms:R:1 pbc="T T T"
Si       1.50768837      -1.56214584       0.93839843       0.00000000
Si      -1.44311481      -1.26113922      -1.45125291       0.00000000
Si       2.26883862       0.21638007      -1.00583115       0.00000000
Si      -1.83083310       1.32776532       1.26462233       0.00000000
Si       0.36776304      -0.28419534      -2.61234496       0.00000000
Si      -2.94933708       0.62605728      -1.30772543       0.00000000
Si      -0.51447078      -3.15310869       1.06287633       0.00000000
Si      -0.94674222       0.02254536       3.28108152       0.00000000
Si       1.32869385      -0.68685156       3.14369685       0.00000000
Si      -2.13517917      -1.99194120       2.40587108       0.00000000
