10
Lattice="16.28999089631971 0.0 0.0 0.0 16.28999089631971 0.0 0.0 0.0 34.51007289658418" Properties=species:S:1:pos:R:3:initial_magmoms:R:1 pbc="T T T"
Si      -1.32897078       1.34270325      -1.48935205       0.00000000
Si      -1.42252425      -1.38831688       1.41108316       0.00000000
Si       1.36965898      -1.35039050      -1.49946351       0.00000000
Si       0.93375813       1.85909625       1.32994993       0.00000000
Si       0.34391352      -2.20496227       2.68971658       0.00000000
Si       2.78665604       0.83715939       2.40908052       0.00000000
Si       2.73583124      -2.63456671      -0.13068972       0.00000000
Si      -2.74683609       2.73289185      -0.19166905       0.00000000
Si       2.73192164       2.80425834      -0.04020426       0.00000000
Si      -2.68674228      -0.00118917      -2.85822936       0.00000000
