10
Lattice="16.28999089631971 0.0 0.0 0.0 16.28999089631971 0.0 0.0 0.0 34.51007289658418" Properties=species:S:1:pos:R:3:initial_magmoms:R:1 pbc="T T T"
Si      -1.42219845       0.78856632       1.75818567       0.00000000
Si      -0.78245757      -1.27465992      -1.91751876       0.00000000
Si       0.84986559       1.78067619      -1.42485269       0.00000000
Si       1.41371136      -1.43710380       1.38678805       0.00000000
Si      -1.68181218      -1.16260101       3.04907017       0.00000000
Si       2.79114489       2.47818141      -0.35438414       0.00000000
Si       1.28620953      -1.47831750      -3.19818828       0.00000000
Si      -2.39091588       0.08355141      -2.97687506       0.00000000
Si       0.81754623      -3.65256728       0.79328349       0.00000000
Si       0.55337130      -1.52145342       3.57258827       0.00000000
