10
Lattice="16.28999089631971 0.0 0.0 0.0 16.28999089631971 0.0 0.0 0.0 34.51007289658418" Properties=species:S:1:pos:R:3:initial_magmoms:R:1 pbc="T T T"
Si       1.94127930       0.69750522       1.07046855       0.00000000
Si      -0.78418431       2.21534226      -0.46229719       0.00000000
Si       0.68675382      -0.94315842      -2.09790301       0.00000000
Si      -0.84986559      -1.78067619       1.42485269       0.00000000
Si      -1.63232316      -3.05533611      -0.49266608       0.00000000
Si       3.45494351      -0.76810608       0.09987221       0.00000000
Si       0.43634394      -3.25899369      -1.77333560       0.00000000
Si       3.00171499      -0.72839106      -2.24802191       0.00000000
Si      -2.53008135       2.29506552      -1.97691063       0.00000000
Si      -3.24078147      -1.69712478      -1.55202238       0.00000000
