10
Lattice="16.28999089631971 0.0 0.0 0.0 16.28999089631971 0.0 0.0 0.0 34.51007289658418" Properties=species:S:1:pos:R:3:initial_magmoms:R:1 pbc="T T T"
Si       1.35691627       1.35702216      -1.35786860       0.00000000
Si      -1.35836886      -1.35853713      -1.35745448       0.00000000
Si      -1.35845166       1.35536058       1.36104353       0.00000000
Si       1.35686740      -1.35987291       1.36011175       0.00000000
Si      -0.01598375      -2.70483884       2.72036155       0.00000000
Si       2.71349860      -0.00094482      -2.71501248       0.00000000
Si      -0.00052291       2.71347417      -2.71521954       0.00000000
Si      -0.00129180      -2.71501846      -2.71480542       0.00000000
Si      -2.71533027       2.71505430      -0.00034510       0.00000000
Si      -2.71539543      -0.00146610      -2.71518503       0.00000000
