10
Lattice="16.28999089631971 0.0 0.0 0.0 16.28999089631971 0.0 0.0 0.0 34.51007289658418" Properties=species:S:1:pos:R:3:initial_magmoms:R:1 pbc="T T T"
Si       1.35698967       1.35622395      -1.35728193       0.00000000
Si       1.35765541      -1.35751086       1.35748899       0.00000000
Si      -1.35733167       1.35770634       1.35793762       0.00000000
Si      -1.35899325      -1.35759231      -1.35745448       0.00000000
Si      -2.71435383      -0.00037467      -2.71349404       0.00000000
Si       0.00048870      -2.71394658       2.71490895       0.00000000
Si       2.71529443       2.71441899       0.00010353       0.00000000
Si      -2.71467963       2.71510317       0.00006902       0.00000000
Si       0.00035838       2.71466334       2.71528856       0.00000000
Si      -2.71538010      -2.71494027      -0.00010353       0.00000000
