10
Lattice="16.28999089631971 0.0 0.0 0.0 16.28999089631971 0.0 0.0 0.0 34.51007289658418" Properties=species:S:1:pos:R:3:initial_magmoms:R:1 pbc="T T T"
Si      -1.36311462      -1.33657821      -1.39075671       0.00000000
Si       1.34716671       1.38074040      -1.39251673       0.00000000
Si      -1.42372971       1.29000510       1.42167776       0.00000000
Si       1.51280343      -1.36987497       1.63998860       0.00000000
Si       0.47734587       1.79058051       3.02819157       0.00000000
Si       2.71264338      -2.67467139      -0.01732407       0.00000000
Si      -2.70730026      -2.70808218      -0.00986989       0.00000000
Si       2.69179218       2.74825332      -0.02363941       0.00000000
Si      -0.00985545      -2.69522937      -2.75297358       0.00000000
Si      -2.71256193       2.74220973      -0.01801427       0.00000000
