10
Lattice="16.28999089631971 0.0 0.0 0.0 16.28999089631971 0.0 0.0 0.0 34.51007289658418" Properties=species:S:1:pos:R:3:initial_magmoms:R:1 pbc="T T T"
Si       0.26715600       1.72581147      -1.44814700       0.00000000
Si      -0.33879942       0.96855453       2.03795898       0.00000000
Si       2.16751482      -0.81998973       0.07857948       0.00000000
Si      -1.83803328      -1.33064865      -0.51040426       0.00000000
Si      -2.34758448      -1.96714782       1.72823091       0.00000000
Si      -1.19234655      -0.73604736       3.41356577       0.00000000
Si       0.34599960       0.81958248      -3.60285362       0.00000000
Si      -1.19203704      -2.76504831      -2.29454152       0.00000000
Si      -1.84696020       2.77203672       1.87445017       0.00000000
Si      -1.70432496       2.76995160      -2.08896490       0.00000000
