10
Lattice="16.28999089631971 0.0 0.0 0.0 16.28999089631971 0.0 0.0 0.0 34.51007289658418" Properties=species:S:1:pos:R:3:initial_magmoms:R:1 pbc="T T T"
Si      -0.37235682       1.84743261       1.38485549       0.00000000
Si      -1.95027138      -0.98673417      -0.98277841       0.00000000
Si       2.13558642       0.48865113      -1.08706790       0.00000000
Si      -1.30955310      -1.51783704       2.00983326       0.00000000
Si      -0.64210293      -2.37332268      -2.44883614       0.00000000
Si       0.74684763       1.32030450       3.39210049       0.00000000
Si       3.55886883      -1.32511005      -0.61231257       0.00000000
Si       1.74417030       1.02255588      -3.29557576       0.00000000
Si       1.81578114       2.94037758       1.75939352       0.00000000
Si       0.21144420      -0.66872079      -3.82444293       0.00000000
