10
Lattice="16.28999089631971 0.0 0.0 0.0 16.28999089631971 0.0 0.0 0.0 34.51007289658418" Properties=species:S:1:pos:R:3:initial_magmoms:R:1 pbc="T T T"
Si      -2.31496117      -0.21476736       0.15011890       0.00000000
Si       0.45322852      -0.03971502       2.34789412       0.00000000
Si       0.97402471      -1.60388082      -1.48372690       0.00000000
Si       0.40540434       1.92696039      -1.38099036       0.00000000
Si      -2.56537105      -2.53060263       0.47468632       0.00000000
Si       3.52698211       0.81977796       0.39020561       0.00000000
Si       3.32868394      -1.21249728      -0.97142458       0.00000000
Si      -0.18494509       3.71175795       0.13065521       0.00000000
Si      -1.06043569       1.42589628       3.31849046       0.00000000
Si       2.65929526       2.52289746      -0.98450391       0.00000000
