10
Lattice="16.28999089631971 0.0 0.0 0.0 16.28999089631971 0.0 0.0 0.0 34.51007289658418" Properties=species:S:1:pos:R:3:initial_magmoms:R:1 pbc="T T T"
Si      -1.51366421       1.46561130       0.97059634       0.00000000
Si       0.12662869      -2.22835797       0.68060804       0.00000000
Si       2.25234662       0.52497783       0.34244364       0.00000000
Si      -0.45322852       0.03971502      -2.34789412       0.00000000
Si       2.39477009      -1.96716411       0.12327005       0.00000000
Si      -0.37110249       3.36847878       0.12340809       0.00000000
Si      -2.76818969      -0.17505234      -2.19777522       0.00000000
Si      -3.45494351       0.76810608      -0.09987221       0.00000000
Si       1.88704337       2.98087452       0.55726897       0.00000000
Si       2.35541345       0.05483214       2.82071689       0.00000000
