10
Lattice="16.28999089631971 0.0 0.0 0.0 16.28999089631971 0.0 0.0 0.0 34.51007289658418" Properties=species:S:1:pos:R:3:initial_magmoms:R:1 pbc="T T T"
Si       0.10112832      -0.49523229      -2.27566450       0.00000000
Si      -2.27940431      -0.16659783       0.55782113       0.00000000
Si       1.05743277      -1.91317905       0.88287169       0.00000000
Si       0.38586123       2.23285401       0.68340336       0.00000000
Si      -1.29411018       1.05401187      -3.18652387       0.00000000
Si       1.91039346      -0.96216885       2.92666288       0.00000000
Si      -2.73883933      -2.44283211       0.17503519       0.00000000
Si      -0.74674989      -3.59157033       0.84370273       0.00000000
Si      -0.88066998       2.24987706       2.96935186       0.00000000
Si       2.92664511      -2.43928089      -0.49891240       0.00000000
