10
Lattice="16.28999089631971 0.0 0.0 0.0 16.28999089631971 0.0 0.0 0.0 34.51007289658418" Properties=species:S:1:pos:R:3:initial_magmoms:R:1 pbc="T T T"
Si      -1.68720158      -0.96242949       1.42102003       0.00000000
Si       1.02038442       1.72994913       1.38455667       0.00000000
Si      -1.74599219       0.09176157      -1.73375252       0.00000000
Si       1.69003211      -1.81286523       0.08482581       0.00000000
Si      -0.33617414      -2.26391904       2.87864005       0.00000000
Si      -0.92823419      -1.51752753      -3.26651827       0.00000000
Si       2.38071182       0.45141219       2.87485085       0.00000000
Si       3.57436157      -0.89723691       1.35334574       0.00000000
Si       2.85585854       2.77801515       0.20528029       0.00000000
Si      -2.84556719      -2.81108385       0.15850406       0.00000000
