10
Lattice="16.28999089631971 0.0 0.0 0.0 16.28999089631971 0.0 0.0 0.0 34.51007289658418" Properties=species:S:1:pos:R:3:initial_magmoms:R:1 pbc="T T T"
Si       1.35763792       1.35633472      -1.35593603       0.00000000
Si      -1.35707707       1.35648133       1.35735095       0.00000000
Si      -1.35664164      -1.35882450      -1.35731644       0.00000000
Si       1.35789856      -1.35837448       1.35717840       0.00000000
Si      -2.71117143       0.00332642      -2.71587523       0.00000000
Si      -2.71410363       2.71355236      -0.00037961       0.00000000
Si      -2.71397331      -0.00176095       2.71370110       0.00000000
Si       0.00374344       2.71246093      -2.71549562       0.00000000
Si       2.71479040       2.71407364      -0.00020706       0.00000000
Si       2.71570264      -0.00206720       2.71318345       0.00000000
