10
Lattice="16.28999089631971 0.0 0.0 0.0 16.28999089631971 0.0 0.0 0.0 34.51007289658418" Properties=species:S:1:pos:R:3:initial_magmoms:R:1 pbc="T T T"
Si      -1.35081404      -1.35226548       1.35790311       0.00000000
Si       1.35850455      -1.35573525      -1.36056038       0.00000000
Si      -1.35646830       1.35925389      -1.35997371       0.00000000
Si       1.35698958       1.35941679       1.38126644       0.00000000
Si      -2.62659781       0.08312787       2.72595218       0.00000000
Si       2.71005327      -2.71353933      -0.00055216       0.00000000
Si      -2.71522132      -2.71568961       0.00134589       0.00000000
Si       0.00014661      -2.71402803      -2.71756623       0.00000000
Si       2.71490769       2.71687878      -0.00262277       0.00000000
Si       2.71453302       0.00037467      -2.71777329       0.00000000
