10
Lattice="16.28999089631971 0.0 0.0 0.0 16.28999089631971 0.0 0.0 0.0 34.51007289658418" Properties=species:S:1:pos:R:3:initial_magmoms:R:1 pbc="T T T"
Si       0.80593146      -1.91910861      -1.27756361       0.00000000
Si      -2.00931448       0.80562195      -1.21634271       0.00000000
Si       1.36313091       2.08660239      -0.08989879       0.00000000
Si       0.64747863      -1.68943590       1.86634030       0.00000000
Si       2.50519023      -0.15664464       1.79483538       0.00000000
Si       1.93437234      -0.31094352      -2.73575305       0.00000000
Si      -3.14252345       1.27044081       1.04486206       0.00000000
Si       3.19945374       1.04171292      -1.22586749       0.00000000
Si      -0.91513962       2.35766799      -2.72640081       0.00000000
Si       0.92809017      -3.62331954       0.59426379       0.00000000
