10
Lattice="16.28999089631971 0.0 0.0 0.0 16.28999089631971 0.0 0.0 0.0 34.51007289658418" Properties=species:S:1:pos:R:3:initial_magmoms:R:1 pbc="T T T"
Si      -2.16292267       0.65708973      -0.54767516       0.00000000
Si       0.23728014      -0.09110997       2.31531659       0.00000000
Si      -0.33891345      -2.32425720      -0.38288947       0.00000000
Si       2.00013507       0.85740786      -0.97484108       0.00000000
Si       1.02770352      -2.37097692      -2.26482833       0.00000000
Si      -3.18315380      -1.13539671       0.73226965       0.00000000
Si       2.48976360      -0.66661938       2.33150183       0.00000000
Si       3.34181205       1.06753257       0.95499778       0.00000000
Si       2.88541512      -0.83818566      -2.33633324       0.00000000
Si      -0.47754135       1.96278210       3.24840047       0.00000000
