10
Lattice="16.290000149 0.0 0.0 0.0 16.290000149 0.0 0.0 0.0 29.1751946751" Properties=species:S:1:pos:R:3:initial_magmoms:R:1 pbc="T T T"
Si      -1.33538905      -1.36416208       1.36892931       0.00000000
Si       1.34983828      -1.34953203      -1.37362652       0.00000000
Si       1.36016614       1.34644996       1.36677034       0.00000000
Si      -1.36868581       1.34431597      -1.36391118       0.00000000
Si      -2.69715161      -2.70705593      -0.00831493       0.00000000
Si       2.71331129       2.69418683      -0.00758555       0.00000000
Si      -0.00788436       2.73377154       2.67880802       0.00000000
Si       2.72419301      -2.69677694      -0.03827786       0.00000000
Si      -2.76025908      -0.00242721       2.66798403       0.00000000
Si      -0.01901043       2.70904331      -2.72061608       0.00000000
