10
Lattice="16.290000149 0.0 0.0 0.0 16.290000149 0.0 0.0 0.0 29.1751946751" Properties=species:S:1:pos:R:3:initial_magmoms:R:1 pbc="T T T"
Si       1.62157177      -0.14442714      -1.66762495       0.00000000
Si      -0.43101711       2.28986577      -0.31205788       0.00000000
Si       0.25269048      -0.50979555       2.29436532       0.00000000
Si      -1.89315866      -1.30386790      -0.64156253       0.00000000
H        1.32924772      -2.22553982       1.48951039       0.00000000
H       -2.77026114      -0.45232443      -1.53934162       0.00000000
Si      -1.49291335       1.03397518       2.74014304       0.00000000
Si       0.04766454      -0.91333144      -3.25134205       0.00000000
Si      -2.32699394       2.27708464       1.02556644       0.00000000
Si      -0.86058442      -2.78197365      -2.12386665       0.00000000
