10
Lattice="16.290000149 0.0 0.0 0.0 16.290000149 0.0 0.0 0.0 29.1751946751" Properties=species:S:1:pos:R:3:initial_magmoms:R:1 pbc="T T T"
Si      -1.07983153      -1.16688529       1.70721569       0.00000000
Si       0.87324175      -1.78460210      -1.28204558       0.00000000
Si       1.86961961       1.46652355       0.14406711       0.00000000
Si      -1.59845626       1.30261357      -1.21234604       0.00000000
H        0.48045726       2.30071817       1.79065675       0.00000000
H       -1.23857758      -0.37092330       2.98237593       0.00000000
H        2.59866227       1.56079378       1.45803035       0.00000000
Si       1.98558812      -0.35632746      -2.84463983       0.00000000
Si      -3.28979811      -1.08665704       0.90020063       0.00000000
Si      -0.28056267       2.65772981      -2.59845954       0.00000000
