10
Lattice="16.290000149 0.0 0.0 0.0 16.290000149 0.0 0.0 0.0 29.1751946751" Properties=species:S:1:pos:R:3:initial_magmoms:R:1 pbc="T T T"
Si      -0.68406598       2.04901323       0.76780360       0.00000000
Si       2.05529303      -0.60591470       0.89279013       0.00000000
Si      -1.23655762      -1.79008368       0.84511786       0.00000000
Si      -0.63224749      -0.67930767      -2.14703175       0.00000000
Si      -0.67228831      -2.82065425      -1.16347759       0.00000000
H        0.69605542       2.30996275      -2.13988383       0.00000000
Si      -1.29805237       1.53100752       2.94885363       0.00000000
Si      -3.51570783       0.78295442      -0.76999174       0.00000000
Si       1.53166726      -1.85644914       2.82760152       0.00000000
Si       1.08160714       3.53212001       0.43243474       0.00000000
