10
Lattice="16.290000149 0.0 0.0 0.0 16.290000149 0.0 0.0 0.0 29.1751946751" Properties=species:S:1:pos:R:3:initial_magmoms:R:1 pbc="T T T"
Si      -1.52070409       1.31626948       1.19659143       0.00000000
Si       1.41157738       1.28302159      -1.38217485       0.00000000
Si      -1.22741893      -1.43270063      -1.42725052       0.00000000
Si       0.98202637      -0.85763104       1.98764766       0.00000000
Si      -0.08000019       2.64520769       2.40488212       0.00000000
Si      -0.76375666      -1.18088003       3.48048402       0.00000000
Si       1.10892547      -3.16093932       1.74689396       0.00000000
Si      -2.68139918      -0.12252198       2.70144798       0.00000000
Si      -2.56679903      -2.81259396      -0.11209110       0.00000000
Si       0.06654465       2.61894821      -2.78830253       0.00000000
