10
Lattice="16.290000149 0.0 0.0 0.0 16.290000149 0.0 0.0 0.0 29.1751946751" Properties=species:S:1:pos:R:3:initial_magmoms:R:1 pbc="T T T"
H       -1.08383887      -1.06109803       0.13519785       0.00000000
Si       1.49842426      -1.06603390      -1.42436218       0.00000000
Si       1.18179879      -0.17466138       2.01939027       0.00000000
Si      -1.00965421       1.91225054      -0.91306689       0.00000000
H       -1.55357731       0.44398395       1.96763348       0.00000000
H       -2.18088893       1.06165189      -1.77994945       0.00000000
Si      -1.98586505      -0.82898182       2.67206855       0.00000000
Si       0.02345760      -2.22193973       2.62214980       0.00000000
Si       0.11683188      -2.55318059      -2.56496642       0.00000000
Si      -2.68231142      -0.36624807      -2.49800934       0.00000000
