10
Lattice="16.290000149 0.0 0.0 0.0 16.290000149 0.0 0.0 0.0 29.1751946751" Properties=species:S:1:pos:R:3:initial_magmoms:R:1 pbc="T T T"
Si      -1.29935020      -1.28940890       1.47266463       0.00000000
Si      -1.45065172       1.38518758      -1.22487387       0.00000000
Si       1.36197971       1.39593898       1.31800692       0.00000000
Si       1.43190453      -1.30720572      -1.35307259       0.00000000
Si      -2.62470461      -2.62498919       0.13563256       0.00000000
Si      -0.12809919       2.71275743      -2.58689945       0.00000000
Si       0.08548259      -2.52218822      -2.83470276       0.00000000
Si       2.71092204      -2.67968873       0.03477975       0.00000000
Si       2.65597587       0.04269609       2.74975043       0.00000000
Si       0.01145220       2.72249885       2.72489316       0.00000000
