10
Lattice="16.290000149 0.0 0.0 0.0 16.290000149 0.0 0.0 0.0 29.1751946751" Properties=species:S:1:pos:R:3:initial_magmoms:R:1 pbc="T T T"
Si      -1.30297195       1.37347507      -1.38278753       0.00000000
Si       1.38071598       1.36117612       1.33164341       0.00000000
Si       1.39585590      -1.33718584      -1.34663946       0.00000000
Si      -1.38447082      -1.33754911       1.37957826       0.00000000
Si       0.07529238      -2.63451054       2.65823951       0.00000000
Si      -2.68074758      -0.00677664      -2.68662698       0.00000000
Si      -2.63309933       2.73750195      -0.01657151       0.00000000
Si       0.02438613      -2.71011845      -2.67449010       0.00000000
Si      -2.61809624       0.09110997       2.79334984       0.00000000
Si       2.72561024       0.02666673       2.70888765       0.00000000
