10
Lattice="16.290000149 0.0 0.0 0.0 16.290000149 0.0 0.0 0.0 29.1751946751" Properties=species:S:1:pos:R:3:initial_magmoms:R:1 pbc="T T T"
Si       1.41190644      -1.42176189       1.15081555       0.00000000
Si      -1.23963317      -1.36809660      -1.43664494       0.00000000
Si       1.41068469       1.29308066      -1.38599680       0.00000000
Si      -1.20938753       1.29479111       1.60519004       0.00000000
H        1.62242211       1.52817795       2.11951954       0.00000000
Si       2.24009005       0.22704676       2.56476219       0.00000000
Si      -2.50306929       2.62684072       0.09811618       0.00000000
Si      -2.54960983      -2.69945176      -0.05552040       0.00000000
Si       0.06579042       2.62759006      -2.76324104       0.00000000
Si      -2.69939638      -0.07113517      -2.71530619       0.00000000
