10
Lattice="16.290000149 0.0 0.0 0.0 16.290000149 0.0 0.0 0.0 29.1751946751" Properties=species:S:1:pos:R:3:initial_magmoms:R:1 pbc="T T T"
Si       1.02400570      -1.13285711      -0.03757765       0.00000000
Si      -0.35168481       2.49484610       0.82647491       0.00000000
Si      -1.88731055       1.78269617      -0.78603809       0.00000000
Si      -0.27854271       1.03835719       2.75720177       0.00000000
H        1.20583468       2.09168489      -1.79549983       0.00000000
Si      -1.85215673      -0.64880138       2.31490582       0.00000000
Si       2.91158666      -0.26420425       1.05541267       0.00000000
Si       1.32085837      -1.81522730      -2.24476865       0.00000000
Si      -1.26592849       0.71713468      -2.83489532       0.00000000
Si      -3.10353825       0.45655983       0.70784857       0.00000000
