10
Lattice="16.290000149 0.0 0.0 0.0 16.290000149 0.0 0.0 0.0 29.1751946751" Properties=species:S:1:pos:R:3:initial_magmoms:R:1 pbc="T T T"
Si       1.41641551      -1.34317144       1.25492140       0.00000000
Si      -1.49835421       1.23482111       1.27990120       0.00000000
Si      -1.04047489      -1.85392582      -0.95051909       0.00000000
Si       0.86556916       1.72774022      -1.38251474       0.00000000
H       -2.05172552       0.77731645      -2.05612184       0.00000000
Si      -1.87455548      -0.61081636      -2.66509568       0.00000000
Si      -0.07845264       2.66435007       2.51487261       0.00000000
Si       2.64883547      -2.54458925      -0.33980641       0.00000000
Si      -0.84020563       3.39508690      -1.25376315       0.00000000
Si      -0.04383639      -2.78107118       2.46868827       0.00000000
