10
Lattice="16.290000149 0.0 0.0 0.0 16.290000149 0.0 0.0 0.0 29.1751946751" Properties=species:S:1:pos:R:3:initial_magmoms:R:1 pbc="T T T"
Si      -1.34768373      -1.35369901       1.35775521       0.00000000
Si      -1.36840461       1.35622396      -1.34150463       0.00000000
Si       1.33033853      -1.34912152      -1.39139421       0.00000000
Si       1.31461217       1.36617715       1.39413668       0.00000000
Si       0.02992688       2.69148269      -2.67568628       0.00000000
Si       2.68093104      -2.70819623      -0.03133416       0.00000000
Si      -2.69139698       0.01208718       2.70812910       0.00000000
Si       2.68995570       2.71479368       0.04352939       0.00000000
Si      -2.71879676      -2.70120782       0.00192556       0.00000000
Si       2.70062565       0.01699047       2.72726802       0.00000000
