10
Lattice="16.290000149 0.0 0.0 0.0 16.290000149 0.0 0.0 0.0 29.1751946751" Properties=species:S:1:pos:R:3:initial_magmoms:R:1 pbc="T T T"
H       -0.78744232      -0.79205239       1.01054122       0.00000000
Si       1.22443786      -1.36956547      -1.41733096       0.00000000
Si      -1.55890414       1.08260083      -1.33820783       0.00000000
Si       1.26732943       1.47619981       1.29386153       0.00000000
H       -2.13530951      -1.79732459       0.54735583       0.00000000
Si      -3.17319429       1.03052170       0.44191667       0.00000000
Si       2.56678274       0.03008763       2.62092444       0.00000000
Si       2.57378744       0.04702923      -2.73065235       0.00000000
Si       2.57155571      -2.73512361      -0.10170473       0.00000000
Si      -0.28388583       2.68762196      -2.62182887       0.00000000
