10
Lattice="16.290000149 0.0 0.0 0.0 16.290000149 0.0 0.0 0.0 29.1751946751" Properties=species:S:1:pos:R:3:initial_magmoms:R:1 pbc="T T T"
Si      -1.29111283      -1.43665958       1.27787353       0.00000000
Si       1.29135718      -1.42955714      -1.32898847       0.00000000
Si      -1.44114373       1.61422938      -0.93815756       0.00000000
Si       1.18814374       1.16354047       1.68159987       0.00000000
Si      -0.81552628       2.02496545       2.66133208       0.00000000
Si      -2.33430815       0.17821700       2.59247862       0.00000000
Si      -0.09205479       2.62741852      -2.57500268       0.00000000
Si       0.23908833      -2.31030858       2.85464692       0.00000000
Si       2.63157948       2.56468573       0.33172196       0.00000000
Si       1.77126059      -0.50739653       3.25145875       0.00000000
