10
Lattice="16.290000149 0.0 0.0 0.0 16.290000149 0.0 0.0 0.0 29.1751946751" Properties=species:S:1:pos:R:3:initial_magmoms:R:1 pbc="T T T"
Si      -1.37117818       1.34570062       1.33847041       0.00000000
Si      -1.38551338      -1.35037585      -1.32484559       0.00000000
Si       1.36272367      -1.36519975       1.33593216       0.00000000
Si       1.37057545       1.35830908      -1.33797443       0.00000000
Si       0.00677664       2.68159466       2.68260080       0.00000000
Si      -0.05530455      -2.77001190      -2.61091735       0.00000000
Si      -0.00232947      -2.71287472       2.68545997       0.00000000
Si       2.69791724      -0.00013032      -2.70448220       0.00000000
Si      -2.72085356      -0.01902672       2.69517531       0.00000000
Si       2.72214047      -0.02127474       2.69931819       0.00000000
