10
Lattice="16.290000149 0.0 0.0 0.0 16.290000149 0.0 0.0 0.0 29.1751946751" Properties=species:S:1:pos:R:3:initial_magmoms:R:1 pbc="T T T"
Si      -1.41850063       1.36938628      -1.25888048       0.00000000
Si      -1.30419370      -1.23670423       1.49905068       0.00000000
Si       1.18032454      -1.45430605      -1.41275045       0.00000000
Si       1.85821661       0.92769922       1.10757792       0.00000000
Si       3.44307072      -0.86304421       1.02116099       0.00000000
Si      -0.04419477       2.69078222      -2.62130372       0.00000000
Si       2.56940543      -2.74559808      -0.05318638       0.00000000
Si       2.55994094      -0.11934054      -2.75944826       0.00000000
Si       0.14266782      -2.58781313       2.78112543       0.00000000
Si      -2.77399155      -0.01265733      -2.61199683       0.00000000
