10
Lattice="16.290000149 0.0 0.0 0.0 16.290000149 0.0 0.0 0.0 29.1751946751" Properties=species:S:1:pos:R:3:initial_magmoms:R:1 pbc="T T T"
Si       0.84572794      -1.87611932      -1.11294615       0.00000000
Si       1.48965535       1.25182135       1.37441425       0.00000000
Si      -1.38820123       1.31432608      -1.43005134       0.00000000
Si      -1.31228983      -1.36837630       1.48242082       0.00000000
H        1.38380293      -1.61486029      -2.49503347       0.00000000
H        2.66413178       0.13240512      -2.08459683       0.00000000
Si       0.00998577       2.55138462       2.71539372       0.00000000
Si      -2.79081912       2.49577463       0.04469640       0.00000000
H       -0.20781153      -0.77814073      -3.66878073       0.00000000
Si       2.53438193      -2.79969717       0.20314688       0.00000000
