10
Lattice="16.290000149 0.0 0.0 0.0 16.290000149 0.0 0.0 0.0 29.1751946751" Properties=species:S:1:pos:R:3:initial_magmoms:R:1 pbc="T T T"
Si      -1.43404129       1.34632453      -1.26168129       0.00000000
Si      -1.37976301      -1.34363179       1.33514443       0.00000000
Si       1.34656399       1.38836902       1.33928731       0.00000000
Si       1.35379675      -1.32921514      -1.40143048       0.00000000
Si      -0.10072107       2.68667714      -2.59021755       0.00000000
Si      -0.01036044      -2.69187365       2.67629896       0.00000000
Si       2.70016526      -2.67418271      -0.03620642       0.00000000
Si       2.70658352       0.03370401       2.69033223       0.00000000
Si      -2.73074160       0.03288951       2.68379698       0.00000000
Si      -0.06851574      -2.78961366      -2.62622849       0.00000000
