10
Lattice="16.290000149 0.0 0.0 0.0 16.290000149 0.0 0.0 0.0 29.1751946751" Properties=species:S:1:pos:R:3:initial_magmoms:R:1 pbc="T T T"
Si      -1.30536658       1.42752529       1.29906843       0.00000000
Si       1.26096004       1.48809151      -1.32216147       0.00000000
Si       1.45539748      -1.41586165       1.21508851       0.00000000
Si      -1.37946979      -1.02579760      -1.63456946       0.00000000
Si       0.33827814      -1.46869012      -3.15345927       0.00000000
Si      -0.42769395       2.41166936      -2.63825450       0.00000000
Si       2.23021505       0.02891475      -2.82695966       0.00000000
Si      -2.22501854       0.81601498      -2.76531248       0.00000000
Si       2.41315175      -2.68915322      -0.53603585       0.00000000
Si      -2.60333750      -0.05758515       2.57284955       0.00000000
