10
Lattice="16.290000149 0.0 0.0 0.0 16.290000149 0.0 0.0 0.0 29.1751946751" Properties=species:S:1:pos:R:3:initial_magmoms:R:1 pbc="T T T"
Si       1.20938753      -1.29479111      -1.60519004       0.00000000
Si      -1.29368176       1.33204960      -1.50707386       0.00000000
Si      -1.44343574      -1.40114527       1.34987791       0.00000000
Si       1.31684289       1.69126040       1.14538897       0.00000000
H        2.83180964       0.23338683       0.51432951       0.00000000
H        0.17501325       2.65176767       1.44361781       0.00000000
H       -0.97534258       0.83482993       3.36900561       0.00000000
Si      -2.63157948      -2.56468573      -0.33172196       0.00000000
Si       3.44947758      -1.06774435       0.95957215       0.00000000
Si       2.62129397      -2.71655300      -0.45437448       0.00000000
