10
Lattice="16.290000149 0.0 0.0 0.0 16.290000149 0.0 0.0 0.0 29.1751946751" Properties=species:S:1:pos:R:3:initial_magmoms:R:1 pbc="T T T"
Si      -1.35944938      -1.36230013       1.34345936       0.00000000
Si      -1.36001953       1.35466501      -1.35104492       0.00000000
Si       1.33261975       1.35236975       1.38337103       0.00000000
Si       1.35132067      -1.36039420      -1.35906809       0.00000000
Si       2.68358204       2.70666497       0.01158255       0.00000000
Si      -2.71329500       0.02251278       2.67971246       0.00000000
Si       0.02832831      -2.70453098       2.69056563       0.00000000
Si      -2.70658352      -0.03370401      -2.69033223       0.00000000
Si       2.66465306      -0.01272249       2.75804785       0.00000000
Si      -0.01018125       2.74248669      -2.68642275       0.00000000
