10
Lattice="16.290000149 0.0 0.0 0.0 16.290000149 0.0 0.0 0.0 29.1751946751" Properties=species:S:1:pos:R:3:initial_magmoms:R:1 pbc="T T T"
Si       1.36028017       1.35439948       1.35372903       0.00000000
Si      -1.33110641      -1.35752716       1.38337103       0.00000000
Si       1.37907883      -1.35927019      -1.33581546       0.00000000
Si      -1.36956059       1.34899120      -1.36356107       0.00000000
Si      -2.66594502      -2.73470007       0.03810280       0.00000000
Si      -0.00891063       2.70801704       2.70547415       0.00000000
Si       2.71536383       2.69814530      -0.02278583       0.00000000
Si      -0.02422323       2.67776651      -2.74538582       0.00000000
Si      -2.71937117       0.00373041       2.70675786       0.00000000
Si       2.70928766      -0.00622278       2.71892392       0.00000000
