10
Lattice="16.290000149 0.0 0.0 0.0 16.290000149 0.0 0.0 0.0 29.1751946751" Properties=species:S:1:pos:R:3:initial_magmoms:R:1 pbc="T T T"
Si       1.42058575       1.31043277       1.31291294       0.00000000
Si       1.37990962      -1.34662915      -1.32061519       0.00000000
Si      -1.34614045      -1.35798328       1.35644233       0.00000000
Si      -1.36153450       1.39463578      -1.30451048       0.00000000
Si       0.06455727       2.68130144       2.58089607       0.00000000
Si       0.00956223      -2.70831026      -2.64794067       0.00000000
Si       2.73189818       0.04471605      -2.64779479       0.00000000
Si      -2.71534754       0.04126257      -2.66544579       0.00000000
Si       0.01402569       2.73696437      -2.64619016       0.00000000
Si       2.73567746      -2.67559994       0.06809490       0.00000000
