10
Lattice="16.290000149 0.0 0.0 0.0 16.290000149 0.0 0.0 0.0 29.1751946751" Properties=species:S:1:pos:R:3:initial_magmoms:R:1 pbc="T T T"
Si       0.92996353      -1.04371660       1.83226058       0.00000000
Si      -0.77120119      -2.04253796      -0.88082830       0.00000000
Si      -1.29419164       1.50249187       1.32116952       0.00000000
Si       1.99024706       0.59474791      -1.17144242       0.00000000
H       -0.25260903       2.70695819      -1.46792074       0.00000000
Si      -0.15721479      -1.52453224      -3.06187833       0.00000000
Si       2.26331633      -2.59328657       0.67470555       0.00000000
Si      -1.00970308      -2.06969339       2.73447430       0.00000000
Si       1.99894592       0.71506585       2.89972260       0.00000000
Si       0.29823732       2.31329405       2.88536840       0.00000000
