10
Lattice="16.290000149 0.0 0.0 0.0 16.290000149 0.0 0.0 0.0 29.1751946751" Properties=species:S:1:pos:R:3:initial_magmoms:R:1 pbc="T T T"
Si       0.87710248      -0.85154347       0.89777909       0.00000000
H       -1.89965837      -0.42652107      -1.24297999       0.00000000
Si       0.88306462       1.01084338      -2.05655947       0.00000000
Si      -0.98735320      -0.34847568      -2.45602624       0.00000000
Si      -0.72910783       2.52863156      -0.98133685       0.00000000
Si      -1.45673326       2.18037091       1.27909888       0.00000000
Si       1.90967672      -2.32964921      -0.58452503       0.00000000
Si      -0.51855957      -2.07795242       2.32482539       0.00000000
Si       2.77026114       0.45232443       1.53934162       0.00000000
Si       2.81792568      -0.46100700      -1.71200042       0.00000000
