10
Lattice="16.290000149 0.0 0.0 0.0 16.290000149 0.0 0.0 0.0 29.1751946751" Properties=species:S:1:pos:R:3:initial_magmoms:R:1 pbc="T T T"
Si      -1.34628706      -1.34702011      -1.38608432       0.00000000
Si       1.30807072       1.34907265      -1.42141548       0.00000000
Si       1.43035975      -1.36275625       1.29351143       0.00000000
Si      -1.41830515       1.35627283       1.33403578       0.00000000
Si       0.08705376      -2.65484648       2.66384115       0.00000000
Si      -2.68635623      -2.69742854      -0.01572543       0.00000000
Si       2.60239268       2.78637195      -0.10958203       0.00000000
Si      -0.09948303       2.81727408       2.61541033       0.00000000
Si       2.68055210      -0.04352036       2.76712134       0.00000000
Si       0.00767259      -2.70573644      -2.74722386       0.00000000
