10
Lattice="16.290000149 0.0 0.0 0.0 16.290000149 0.0 0.0 0.0 29.1751946751" Properties=species:S:1:pos:R:3:initial_magmoms:R:1 pbc="T T T"
Si      -0.99577513       1.84542896      -0.90419763       0.00000000
Si      -1.76567312      -1.48310677       0.33536886       0.00000000
Si       0.38178873       0.63617338       2.22580478       0.00000000
Si       1.75259225      -0.97531489      -1.26535737       0.00000000
H       -0.38555172      -1.22215726      -2.57231856       0.00000000
Si       1.87108571      -1.22572477       2.57806608       0.00000000
Si       2.49246776      -2.29128626       0.52920886       0.00000000
Si      -2.47414151       0.83126242      -2.37334374       0.00000000
Si      -1.08160714      -3.53212001      -0.43243474       0.00000000
Si      -3.58648788      -0.59701222      -0.81074948       0.00000000
