10
Lattice="16.290000149 0.0 0.0 0.0 16.290000149 0.0 0.0 0.0 29.1751946751" Properties=species:S:1:pos:R:3:initial_magmoms:R:1 pbc="T T T"
Si       1.36427122       1.36138789      -1.32954280       0.00000000
Si      -1.35000118       1.36485766       1.35661738       0.00000000
Si       1.38463372      -1.33814206       1.34914853       0.00000000
Si      -1.33411843      -1.35154873      -1.39472018       0.00000000
Si       2.69996978      -0.08014680      -2.61888217       0.00000000
Si      -2.68920209      -2.69529455      -0.01820532       0.00000000
Si      -0.02031363       2.71819829      -2.66915104       0.00000000
Si       0.02570562      -2.70081686       2.69365820       0.00000000
Si      -2.71979471       0.02160054       2.69952241       0.00000000
Si       0.01733256       2.72678312       2.70900435       0.00000000
