10
Lattice="16.290000149 0.0 0.0 0.0 16.290000149 0.0 0.0 0.0 29.1751946751" Properties=species:S:1:pos:R:3:initial_magmoms:R:1 pbc="T T T"
Si       1.40261788      -1.18144855      -1.47474774       0.00000000
Si      -1.31852239      -1.42890994       1.34138793       0.00000000
Si      -1.83240347       1.18993890      -0.91852265       0.00000000
Si       1.44552574       1.44256748       1.27273869       0.00000000
H        0.80484004       2.60638373      -1.44849007       0.00000000
Si      -0.47607525       2.56363877      -2.26810881       0.00000000
Si      -2.77465944       1.99855496       1.06970851       0.00000000
Si      -2.49096550       0.16300654       2.62827659       0.00000000
Si      -0.14312394      -2.48754818      -2.66874258       0.00000000
Si       2.79081912      -2.49577463      -0.04469640       0.00000000
