10
Lattice="16.290000149 0.0 0.0 0.0 16.290000149 0.0 0.0 0.0 29.1751946751" Properties=species:S:1:pos:R:3:initial_magmoms:R:1 pbc="T T T"
Si       1.40789096      -1.21593448       1.38477144       0.00000000
Si      -1.28644249      -1.41079546      -1.31699746       0.00000000
Si      -1.29121546       1.35441577       1.40563170       0.00000000
Si       1.45669580       1.38864106      -1.22069015       0.00000000
Si       2.07071477       0.66800404       2.67860380       0.00000000
Si       0.45888442       2.36397224       2.57132661       0.00000000
Si      -2.63356034      -0.04523733      -2.63262369       0.00000000
Si       0.08257401      -2.70246215       2.63720420       0.00000000
Si       0.10157467       2.73935901      -2.60166881       0.00000000
Si       0.11387199      -2.72277578      -2.63991749       0.00000000
