10
Lattice="16.290000149 0.0 0.0 0.0 16.290000149 0.0 0.0 0.0 29.1751946751" Properties=species:S:1:pos:R:3:initial_magmoms:R:1 pbc="T T T"
Si       1.37855755       1.36383139       1.30491893       0.00000000
Si      -1.31701393       1.39136149      -1.34182555       0.00000000
Si       1.32734179      -1.35843940      -1.36650777       0.00000000
Si      -1.37057545      -1.35830908       1.33797443       0.00000000
Si      -2.62940150       0.03134196      -2.68682537       0.00000000
Si      -0.00666261       2.67820634       2.66328682       0.00000000
Si       2.73795807       0.04655682      -2.62444880       0.00000000
Si       2.70783785      -0.00272043       2.68090864       0.00000000
Si      -0.09255978      -2.78796837      -2.60147917       0.00000000
Si      -0.00785178      -2.72350883       2.67390659       0.00000000
