10
Lattice="16.290000149 0.0 0.0 0.0 16.290000149 0.0 0.0 0.0 29.1751946751" Properties=species:S:1:pos:R:3:initial_magmoms:R:1 pbc="T T T"
Si       0.46364598      -0.42588576       2.21072120       0.00000000
Si       1.83208745       1.28824579      -0.64281706       0.00000000
Si      -1.61183035       1.69596821      -0.10727719       0.00000000
Si      -0.66282382      -1.88393852      -1.29383236       0.00000000
H        1.82465921       0.14185332       2.48563906       0.00000000
Si       0.80426989       2.11393703      -2.60070603       0.00000000
Si      -2.07071477      -0.66800404      -2.67860380       0.00000000
Si      -3.36193023       0.68641174      -1.27297209       0.00000000
Si       3.65627424      -0.16443126      -0.80570218       0.00000000
Si      -0.69986728       3.41021379      -1.39369905       0.00000000
