10
Lattice="16.290000149 0.0 0.0 0.0 16.290000149 0.0 0.0 0.0 29.1751946751" Properties=species:S:1:pos:R:3:initial_magmoms:R:1 pbc="T T T"
Si       1.36099693      -1.35211888      -1.35218275       0.00000000
Si       1.37329588       1.36412461       1.33068063       0.00000000
Si      -1.35436690       1.35075052      -1.36890013       0.00000000
Si      -1.35314515      -1.34773687       1.37435590       0.00000000
Si       0.00342090       2.72116307       2.65669323       0.00000000
Si       2.68369607      -2.72285723       0.03550621       0.00000000
Si      -2.71331129      -2.69418683       0.00758555       0.00000000
Si      -2.72119565       0.03958470       2.68639358       0.00000000
Si       0.00158013      -2.69604389      -2.71556877       0.00000000
Si       2.71726976       0.02474451      -2.70856672       0.00000000
