10
Lattice="16.290000149 0.0 0.0 0.0 16.290000149 0.0 0.0 0.0 29.1751946751" Properties=species:S:1:pos:R:3:initial_magmoms:R:1 pbc="T T T"
Si       1.53562573       0.71214994       1.61251301       0.00000000
Si      -1.21622770      -1.32613633       1.49388667       0.00000000
Si       0.62138206      -1.06556149      -2.04885722       0.00000000
Si      -1.48929697       1.86189815      -0.35226130       0.00000000
H        1.88731055      -1.78269617       0.78603809       0.00000000
H        3.09314523       0.30898872      -1.00946174       0.00000000
Si      -1.87108571       1.22572477      -2.57806608       0.00000000
Si       0.30998241       2.56468133       2.28161692       0.00000000
Si       3.16416963       1.37948608       0.05741678       0.00000000
Si      -2.54958050       0.22343364       2.65144169       0.00000000
