10
Lattice="16.290000149 0.0 0.0 0.0 16.290000149 0.0 0.0 0.0 29.1751946751" Properties=species:S:1:pos:R:3:initial_magmoms:R:1 pbc="T T T"
Si      -1.36987498       1.35703846       1.32601260       0.00000000
Si      -1.37329588      -1.36412461      -1.33068063       0.00000000
Si       1.35558865       1.37425699      -1.34083360       0.00000000
Si       1.35804844      -1.34270326       1.37488105       0.00000000
Si      -0.01084914       2.66729204       2.71504362       0.00000000
Si       2.68817582      -2.70673013       0.00866503       0.00000000
Si      -0.01229895      -2.71624349      -2.68286338       0.00000000
Si      -2.71112843       0.02378340       2.69783025       0.00000000
Si       2.70226667       0.02643867      -2.70821662       0.00000000
Si      -2.72622926       2.69187365      -0.05248618       0.00000000
