10
Lattice="16.290000149 0.0 0.0 0.0 16.290000149 0.0 0.0 0.0 29.1751946751" Properties=species:S:1:pos:R:3:initial_magmoms:R:1 pbc="T T T"
Si       0.52425130      -0.66547909       2.23645372       0.00000000
Si       1.15834119       2.04727835      -0.60275952       0.00000000
Si      -2.00932265       1.39295791       0.04991876       0.00000000
Si      -1.21132441      -1.60019929      -1.39868801       0.00000000
Si       2.18448902      -1.39916440      -1.03656549       0.00000000
H       -1.10729647       1.16084170      -2.48695194       0.00000000
H       -2.64604988      -1.29354004      -0.95510835       0.00000000
H       -1.57703491       2.66592368      -0.65451632       0.00000000
Si      -0.02345760       2.22193973      -2.62214980       0.00000000
H        3.38832003      -1.03478968      -0.15217782       0.00000000
