10
Lattice="16.290000149 0.0 0.0 0.0 16.290000149 0.0 0.0 0.0 29.1751946751" Properties=species:S:1:pos:R:3:initial_magmoms:R:1 pbc="T T T"
Si      -1.36979353      -1.34325712       1.34290504       0.00000000
Si      -1.38150604       1.34581465      -1.33701165       0.00000000
Si       1.35000118      -1.36485766      -1.35661738       0.00000000
Si       1.36733374       1.36192546       1.35238697       0.00000000
Si       0.00571779       2.70515000      -2.64128872       0.00000000
Si      -0.00022806      -2.70094718       2.66699207       0.00000000
Si       2.71427240      -0.00346977      -2.68616017       0.00000000
Si      -2.70839171      -2.70653465      -0.02307758       0.00000000
Si      -2.69936705       2.71645526       0.05178597       0.00000000
Si      -2.68869710       0.01865205       2.73552460       0.00000000
