10
Lattice="16.290000149 0.0 0.0 0.0 16.290000149 0.0 0.0 0.0 29.1751946751" Properties=species:S:1:pos:R:3:initial_magmoms:R:1 pbc="T T T"
Si       1.81697033       1.31891986       0.60156334       0.00000000
Si      -0.72762544      -0.34826066       2.26043573       0.00000000
Si      -1.21754719       1.86966848      -0.95397052       0.00000000
Si       1.61217244      -1.51778818      -1.07522262       0.00000000
H        0.72910783      -2.52863156       0.98133685       0.00000000
H       -1.17055054      -2.95515264      -0.26164315       0.00000000
Si      -0.25824537      -2.87710725      -1.47468939       0.00000000
Si       0.48361752       2.86848984       1.75911836       0.00000000
Si      -1.45604908       1.84251305       2.66133208       0.00000000
Si      -1.15605244      -1.45142272      -3.05770628       0.00000000
