10
Lattice="16.290000149 0.0 0.0 0.0 16.290000149 0.0 0.0 0.0 29.1751946751" Properties=species:S:1:pos:R:3:initial_magmoms:R:1 pbc="T T T"
H        0.64554013      -0.43333029       0.00913184       0.00000000
H       -1.13784022      -1.68298508       1.10734451       0.00000000
Si       0.84805741       1.66570139       1.77461039       0.00000000
Si      -1.86688289      -1.77725531      -0.20661873       0.00000000
Si      -0.07314210       0.75442249      -2.55898550       0.00000000
Si      -2.20193561       0.17348850      -1.57123011       0.00000000
Si       2.62488917       0.08933436       1.14579742       0.00000000
Si       1.37955124      -1.07650837      -2.46349509       0.00000000
Si      -0.34259499       2.99708310       0.23416011       0.00000000
Si      -0.27254799      -2.58593978      -1.72617957       0.00000000
