10
Lattice="16.290000149 0.0 0.0 0.0 16.290000149 0.0 0.0 0.0 29.1751946751" Properties=species:S:1:pos:R:3:initial_magmoms:R:1 pbc="T T T"
Si      -1.45805275      -1.29889945       1.30100946       0.00000000
Si       1.36805050      -1.38732157      -1.31203768       0.00000000
Si      -1.36304947       1.32535441      -1.38080361       0.00000000
Si       1.38336310       1.34832331       1.34211731       0.00000000
Si      -0.06195087       2.71181261       2.57474011       0.00000000
Si      -0.21919824      -2.69000030       2.67285628       0.00000000
Si       2.72461656       2.68157837      -0.02970035       0.00000000
Si       2.72119565      -0.03958470      -2.68639358       0.00000000
Si       0.00788436      -2.73377154      -2.67880802       0.00000000
Si      -0.00951336       2.67747329      -2.74170974       0.00000000
