10
Lattice="16.290000149 0.0 0.0 0.0 16.290000149 0.0 0.0 0.0 29.1751946751" Properties=species:S:1:pos:R:3:initial_magmoms:R:1 pbc="T T T"
Si      -1.45170291       1.21819879       1.35051976       0.00000000
Si       1.17996290       1.54153900      -1.30544409       0.00000000
Si       1.44040743      -1.17672445       1.45470438       0.00000000
Si      -0.22333102      -1.86577517      -1.43346484       0.00000000
H       -2.95870712      -1.24712983      -1.48522164       0.00000000
Si       2.08769058      -2.02489589      -2.02388325       0.00000000
Si      -2.60580055      -0.42057522       2.53153164       0.00000000
Si       2.54508121       0.18743274      -2.62509649       0.00000000
Si       3.16230931      -1.93846115       0.07859797       0.00000000
Si       0.00456446       2.60017724       2.70468642       0.00000000
