10
Lattice="16.290000149 0.0 0.0 0.0 16.290000149 0.0 0.0 0.0 29.1751946751" Properties=species:S:1:pos:R:3:initial_magmoms:R:1 pbc="T T T"
Si       1.25138152      -0.24145038      -1.95718876       0.00000000
Si      -0.35453556       2.11366010       0.93955797       0.00000000
Si       1.19065240      -1.33138171       1.54045028       0.00000000
Si      -2.07488990      -0.69041908      -0.88488365       0.00000000
H        0.34259499      -2.99708310      -0.23416011       0.00000000
H        2.64174932      -0.62982028      -1.48297515       0.00000000
H       -2.54716958       0.28834929       1.74216757       0.00000000
H       -1.26684073       2.03561471       2.15260421       0.00000000
H       -3.20649105      -0.63226378       0.12063943       0.00000000
H        0.98813512      -3.43041339      -0.22502828       0.00000000
