10
Lattice="10.86 0.0 0.0 0.0 10.86 0.0 0.0 0.0 10.86" Properties=species:S:1:pos:R:3:initial_magmoms:R:1 pbc="T T T"
Si       1.33296726       1.31802390       1.37451762       0.00000000
Si      -1.38203274       1.31802390      -1.34048238       0.00000000
Si       1.16274762      -1.24948644      -1.59258642       0.00000000
Si      -1.38203274      -1.39697610       1.37451762       0.00000000
Si       2.64385614       2.57174574       0.10276818       0.00000000
Si      -0.02039508      -2.64829788      -2.65852800       0.00000000
Si      -0.02453274       2.67552390       2.73201762       0.00000000
Si      -2.73953274       2.67552390       0.01701762       0.00000000
Si       2.69046726      -0.03947610       2.73201762       0.00000000
Si      -2.73953274      -0.03947610      -2.69798238       0.00000000
