10
Lattice="10.86 0.0 0.0 0.0 10.86 0.0 0.0 0.0 10.86" Properties=species:S:1:pos:R:3:initial_magmoms:R:1 pbc="T T T"
Si      -1.31088888      -1.25372184       1.27174944       0.00000000
Si       1.40411112       1.46127816       1.27174944       0.00000000
Si      -1.31088888       1.46127816      -1.44325056       0.00000000
Si      -2.64385614      -2.57174574      -0.10276818       0.00000000
Si       0.04661112      -2.61122184       2.62924944       0.00000000
Si      -2.66838888       0.10377816       2.62924944       0.00000000
Si       2.76161112       0.10377816       2.62924944       0.00000000
Si       2.83048524      -2.56764066      -0.09098508       0.00000000
Si       0.04661112       2.81877816       2.62924944       0.00000000
Si      -2.66838888       2.81877816      -0.08575056       0.00000000
