10
Lattice="10.86 0.0 0.0 0.0 10.86 0.0 0.0 0.0 10.86" Properties=species:S:1:pos:R:3:initial_magmoms:R:1 pbc="T T T"
Si       1.16396394      -1.54727850      -1.15309308       0.00000000
Si      -1.55103606       1.16772150      -1.15309308       0.00000000
Si       1.16396394       1.16772150       1.56190692       0.00000000
Si       2.52146394      -0.18977850      -2.51059308       0.00000000
Si      -0.19353606       2.52522150      -2.51059308       0.00000000
Si       2.52146394       2.52522150       0.20440692       0.00000000
Si      -2.86381458      -0.36046512      -2.26158414       0.00000000
Si       2.52146394      -2.90477850       0.20440692       0.00000000
Si      -2.90853606       2.52522150       0.20440692       0.00000000
Si       2.52146394      -0.18977850       2.91940692       0.00000000
