10
Lattice="16.28999089631971 0.0 0.0 0.0 16.28999089631971 0.0 0.0 0.0 34.281931910070035" Properties=species:S:1:pos:R:3:initial_magmoms:R:1 pbc="T T T"
Si       1.35569615       1.35672894      -1.35646824       0.00000000
Si       1.35263363      -1.35845568       1.36178194       0.00000000
Si      -1.35964686      -1.35834165      -1.35636539       0.00000000
Si      -1.36003322       1.35710361       1.35993072       0.00000000
Si      -2.70302969      -0.02072088       2.71763311       0.00000000
Si       2.71345136      -0.00117288      -2.71410207       0.00000000
Si      -0.00199390       2.71415835      -2.71465058       0.00000000
Si       2.71441247       2.71542897      -0.00051423       0.00000000
Si      -2.71607798       2.71393029       0.00000000       0.00000000
Si      -0.00214702      -2.71591930      -2.71441060       0.00000000
