10
Lattice="16.28999089631971 0.0 0.0 0.0 16.28999089631971 0.0 0.0 0.0 34.281931910070035" Properties=species:S:1:pos:R:3:initial_magmoms:R:1 pbc="T T T"
Si       1.35195597      -1.35778495      -1.35831947       0.00000000
Si       1.35534429       1.35791673       1.35759954       0.00000000
Si      -1.35900954      -1.35763834       1.35705103       0.00000000
Si      -1.35910728       1.35816597      -1.36174766       0.00000000
Si      -0.01122381      -2.69887549      -2.70703656       0.00000000
Si       2.71303434      -0.00015828       2.71434204       0.00000000
Si       2.71458189      -2.71348762      -0.00075420       0.00000000
Si      -0.00159642      -2.71524694       2.71434204       0.00000000
Si       2.71515204       2.71449418       0.00143984       0.00000000
Si      -0.00175932       2.71503175       2.71492483       0.00000000
