10
Lattice="16.28999089631971 0.0 0.0 0.0 16.28999089631971 0.0 0.0 0.0 34.281931910070035" Properties=species:S:1:pos:R:3:initial_magmoms:R:1 pbc="T T T"
Si      -1.34838846      -1.35540309       1.34484666       0.00000000
Si      -1.35430173       1.35640691      -1.35732529       0.00000000
Si       1.35930276      -1.35667371      -1.35804521       0.00000000
Si       1.35801585       1.36361524       1.36671854       0.00000000
Si       0.09993915      -2.40076497       2.82363290       0.00000000
Si      -2.61933426       0.11939351       2.65489714       0.00000000
Si       2.71041165       2.71679459       0.00130271       0.00000000
Si      -2.71261080      -0.00178822      -2.71495911       0.00000000
Si       0.00195480       2.71386239      -2.71502768       0.00000000
Si      -2.71609686       2.71386239       0.00315394       0.00000000
