10
Lattice="16.28999089631971 0.0 0.0 0.0 16.28999089631971 0.0 0.0 0.0 34.281931910070035" Properties=species:S:1:pos:R:3:initial_magmoms:R:1 pbc="T T T"
Si      -2.25474777      -0.75045654       0.16071379       0.00000000
Si       0.94734495      -1.82352771       1.32170634       0.00000000
Si       0.06195087       2.23690859       0.99805044       0.00000000
Si      -1.21349097       1.51887797      -1.59795030       0.00000000
Si       1.66645071      -0.93687930      -1.65825226       0.00000000
Si      -3.01702203       0.40152406       2.06099662       0.00000000
Si       3.40917120       0.98256230       1.22489411       0.00000000
Si      -2.22057135      -0.07719310      -3.04715122       0.00000000
Si      -2.28545442       2.75963840       1.33658471       0.00000000
Si       0.50288859       2.58313625      -2.84053390       0.00000000
