10
Lattice="16.28999089631971 0.0 0.0 0.0 16.28999089631971 0.0 0.0 0.0 34.281931910070035" Properties=species:S:1:pos:R:3:initial_magmoms:R:1 pbc="T T T"
Si      -1.39988115       0.86611324      -1.62815270       0.00000000
Si      -0.22799484       1.91259261       1.37028387       0.00000000
Si      -1.28220219      -1.63075022       1.15036515       0.00000000
Si       2.16785691      -0.70254602      -0.74947201       0.00000000
Si       1.78810443       1.63217655       2.56953508       0.00000000
Si      -3.04533405      -1.97674982      -0.45893248       0.00000000
Si      -2.40937245      -1.00633823      -2.57666572       0.00000000
Si       3.27718962       1.39652541      -1.09270291       0.00000000
Si       2.97023715      -2.00584376       1.06102639       0.00000000
Si      -3.34130706       1.68366924      -0.39410531       0.00000000
