10
Lattice="16.28999089631971 0.0 0.0 0.0 16.28999089631971 0.0 0.0 0.0 34.281931910070035" Properties=species:S:1:pos:R:3:initial_magmoms:R:1 pbc="T T T"
Si      -1.86380406      -0.33511788       1.35194302       0.00000000
Si       2.01609927      -0.28041606       1.19925121       0.00000000
Si       0.22799484      -1.91259261      -1.37028387       0.00000000
Si      -0.33000282       2.09969955      -1.19794850       0.00000000
Si      -1.17188631      -1.04647937      -2.99843657       0.00000000
Si       1.91120796       2.76154596      -0.66294437       0.00000000
Si       3.32066763       0.79623891      -0.39962470       0.00000000
Si      -1.45655406       1.14442137       3.04972237       0.00000000
Si      -3.11331222      -0.22892337      -1.76438918       0.00000000
Si      -1.77634305      -2.58439940       1.94430085       0.00000000
