10
Lattice="16.28999089631971 0.0 0.0 0.0 16.28999089631971 0.0 0.0 0.0 34.281931910070035" Properties=species:S:1:pos:R:3:initial_magmoms:R:1 pbc="T T T"
Si       1.95807429      -1.26879130      -0.29921287       0.00000000
Si      -1.04549220      -0.69645844       2.01046502       0.00000000
Si       0.43945533       2.27842854       0.50939551       0.00000000
Si      -1.55523888      -0.39396943      -1.82568530       0.00000000
Si      -1.64269989       1.85531208      -2.41804314       0.00000000
Si      -1.23544989       3.33485133      -0.72026379       0.00000000
Si       0.97847514      -3.45090196      -0.78197130       0.00000000
Si       3.04605081      -0.32107168      -2.20984885       0.00000000
Si      -1.78466724      -2.90948752       1.71690867       0.00000000
Si       2.23720344       1.91001390      -2.57073495       0.00000000
