10
Lattice="16.28999089631971 0.0 0.0 0.0 16.28999089631971 0.0 0.0 0.0 34.281931910070035" Properties=species:S:1:pos:R:3:initial_magmoms:R:1 pbc="T T T"
Si      -1.35643572       1.35664749       1.35897082       0.00000000
Si      -1.34946360      -1.35420399      -1.36882688       0.00000000
Si       1.35762489      -1.36058967       1.35811377       0.00000000
Si       1.35918873       1.34904006      -1.39357502       0.00000000
Si       0.14608872      -2.52495000      -2.81060576       0.00000000
Si      -0.15532515       2.67986790      -2.73536030       0.00000000
Si       2.71401174       2.71336014      -0.00466235       0.00000000
Si       0.00032580       2.71251306       2.71629611       0.00000000
Si      -2.71749454       2.71147050       0.00524514       0.00000000
Si      -2.71420722      -0.00223173       2.71595329       0.00000000
