10
Lattice="16.28999089631971 0.0 0.0 0.0 16.28999089631971 0.0 0.0 0.0 34.281931910070035" Properties=species:S:1:pos:R:3:initial_magmoms:R:1 pbc="T T T"
Si       0.29278017       1.37112930      -1.94035843       0.00000000
Si       2.34740529      -0.52272981      -0.33853427       0.00000000
Si      -0.22457394       1.50653178       1.91711527       0.00000000
Si      -0.73156761      -2.35811434       0.72441191       0.00000000
Si       1.07196345      -1.24076043      -2.93453501       0.00000000
Si       2.89302255      -0.21191661       1.96658412       0.00000000
Si       0.03070665      -3.51009494      -1.17587092       0.00000000
Si       2.28545442      -2.75963840      -1.33658471       0.00000000
Si      -1.94641717       1.62655650      -2.89295100       0.00000000
Si       2.01280869       1.79545122       2.86360565       0.00000000
