10
Lattice="16.28999089631971 0.0 0.0 0.0 16.28999089631971 0.0 0.0 0.0 34.281931910070035" Properties=species:S:1:pos:R:3:initial_magmoms:R:1 pbc="T T T"
Si      -1.35624024       1.35842310      -1.35718816       0.00000000
Si       1.35915615      -1.35754344      -1.35619398       0.00000000
Si      -1.34998488      -1.35280305       1.38752769       0.00000000
Si       1.35009891       1.35757602       1.39184721       0.00000000
Si       2.70848943      -2.71252935       0.00325679       0.00000000
Si       0.00000000       2.71427238      -2.71290220       0.00000000
Si       2.71427238       0.00001629      -2.71297076       0.00000000
Si      -2.71523349       2.71204065       0.00253686       0.00000000
Si      -2.71495656      -0.00027693      -2.71314217       0.00000000
Si       0.00003258      -2.71546155      -2.71307361       0.00000000
