10
Lattice="16.28999089631971 0.0 0.0 0.0 16.28999089631971 0.0 0.0 0.0 34.281931910070035" Properties=species:S:1:pos:R:3:initial_magmoms:R:1 pbc="T T T"
Si       2.24121078       0.66184641       0.53500413       0.00000000
Si      -0.44031870       0.25194114      -2.35013059       0.00000000
Si      -1.46564388       1.49659488       1.21512376       0.00000000
Si       0.33000282      -2.09969955       1.19794850       0.00000000
Si      -0.48138579       1.11492018       3.27601753       0.00000000
Si       1.69236810       1.75220127       2.57861980       0.00000000
Si      -2.78330940      -2.32862292      -0.56644068       0.00000000
Si       0.43989516      -1.75542669      -3.24715212       0.00000000
Si      -0.84188349      -3.14617892      -1.80048807       0.00000000
Si       0.52501041       2.41463412      -2.81732502       0.00000000
