10
Lattice="16.28999089631971 0.0 0.0 0.0 16.28999089631971 0.0 0.0 0.0 34.281931910070035" Properties=species:S:1:pos:R:3:initial_magmoms:R:1 pbc="T T T"
Si      -1.35918873      -1.34904006       1.39357502       0.00000000
Si       1.35482301       1.36432008       1.38891268       0.00000000
Si      -1.51451388       1.33082784      -1.34178528       0.00000000
Si       1.52003619      -1.23900111      -1.52418926       0.00000000
Si      -2.70865233      -2.70324405       0.02474814       0.00000000
Si       2.72502378      -2.70242955       0.00345219       0.00000000
Si      -2.72295495       2.71705797       0.06267769       0.00000000
Si       2.73904947       2.71572219       0.01902991       0.00000000
Si      -0.00156384      -2.70962973       2.75168880       0.00000000
Si      -2.71562445       0.00760743       2.75254585       0.00000000
