10
Lattice="16.28999089631971 0.0 0.0 0.0 16.28999089631971 0.0 0.0 0.0 34.281931910070035" Properties=species:S:1:pos:R:3:initial_magmoms:R:1 pbc="T T T"
Si      -1.35726162       1.53819954      -1.07395068       0.00000000
Si      -0.53465409       0.91368981       2.08921066       0.00000000
Si      -1.18837993      -2.00217295       0.43167833       0.00000000
Si       1.94142591      -0.81755600      -1.23404739       0.00000000
Si       1.24950816      -0.10619451       3.11633220       0.00000000
Si      -3.33007415       0.30051792      -1.13949777       0.00000000
Si       0.10560807       2.29164462      -2.73018030       0.00000000
Si       3.11331222       0.22892337       1.76438918       0.00000000
Si       0.93193461      -2.69000747      -2.18256041       0.00000000
Si      -2.89066769      -1.95156644      -1.15091366       0.00000000
