10
Lattice="16.28999089631971 0.0 0.0 0.0 16.28999089631971 0.0 0.0 0.0 34.281931910070035" Properties=species:S:1:pos:R:3:initial_magmoms:R:1 pbc="T T T"
Si      -1.49270157       1.22166855       1.16956304       0.00000000
Si       0.04308705      -1.41874497      -1.92832547       0.00000000
Si       1.45002177       1.08664074       1.57878669       0.00000000
Si      -1.00993113       2.74854654      -0.97017922       0.00000000
Si       2.38213557      -1.13080293       1.87525701       0.00000000
Si       3.41148438      -1.70098551      -0.23685400       0.00000000
Si       3.12662115       2.25541566       0.31727946       0.00000000
Si       2.17647432      -2.32640748      -2.32812158       0.00000000
Si       1.28492262       1.01735937      -3.64256015       0.00000000
Si       2.63116080       2.52102411      -2.10885422       0.00000000
