10
Lattice="16.28999089631971 0.0 0.0 0.0 16.28999089631971 0.0 0.0 0.0 34.281931910070035" Properties=species:S:1:pos:R:3:initial_magmoms:R:1 pbc="T T T"
Si       2.10574314       0.35575731       1.00271279       0.00000000
Si      -2.02592214       1.12106151       0.51134958       0.00000000
Si       0.68328405       0.66308445      -2.17237868       0.00000000
Si      -0.26119386      -2.33186463       0.54079778       0.00000000
Si      -3.40573401       0.10213830      -1.14803398       0.00000000
Si      -2.44589463       0.34979517       2.70107492       0.00000000
Si       3.53318697      -0.78600879      -0.65670505       0.00000000
Si       0.53457264      -3.36741993      -1.39273854       0.00000000
Si       1.85137479      -1.02697047       3.11893763       0.00000000
Si      -0.64267308      -0.36945720      -3.72065443       0.00000000
