10
Lattice="16.28999089631971 0.0 0.0 0.0 16.28999089631971 0.0 0.0 0.0 34.281931910070035" Properties=species:S:1:pos:R:3:initial_magmoms:R:1 pbc="T T T"
Si      -0.94446162      -2.04753897      -0.56925180       0.00000000
Si       2.23694280      -0.27119592      -0.66431565       0.00000000
Si      -0.07596027       0.45085833       2.34646242       0.00000000
Si      -0.85913460       1.39131261      -1.74999076       0.00000000
Si      -0.19815156      -1.48701636      -2.97155952       0.00000000
Si       2.93197194      -1.57134969       1.15876423       0.00000000
Si       2.22298227       0.00706986       2.77450686       0.00000000
Si      -3.23363016      -1.70479737      -0.04000704       0.00000000
Si      -2.19188466      -0.12375513      -2.96096640       0.00000000
Si      -2.89049760       2.19812373       0.91961334       0.00000000
