10
Lattice="16.28999089631971 0.0 0.0 0.0 16.28999089631971 0.0 0.0 0.0 34.281931910070035" Properties=species:S:1:pos:R:3:initial_magmoms:R:1 pbc="T T T"
Si      -1.34583093      -1.35076224      -1.39626959       0.00000000
Si       1.36907676       1.36613967      -1.39630387       0.00000000
Si      -1.38166893       1.40544744       1.43596808       0.00000000
Si       1.36549296      -1.30078370       1.66908535       0.00000000
Si       0.39651489       2.33006784       2.65273737       0.00000000
Si       2.10885453       0.54885408       3.07738790       0.00000000
Si      -2.68350057      -2.71698859      -0.01193012       0.00000000
Si       2.72088612      -2.70097552       0.00366817       0.00000000
Si       2.73662226       2.70389076      -0.03908142       0.00000000
Si      -2.70417258       2.74033149      -0.02098055       0.00000000
