10
Lattice="16.28999089631971 0.0 0.0 0.0 16.28999089631971 0.0 0.0 0.0 34.281931910070035" Properties=species:S:1:pos:R:3:initial_magmoms:R:1 pbc="T T T"
Si      -2.23572105      -0.46667592       0.03016812       0.00000000
Si       0.18573858       2.24446878       0.71525863       0.00000000
Si       1.78722477      -1.41926951       0.74378121       0.00000000
Si      -1.48012569       0.15640029      -2.53587020       0.00000000
Si      -2.68688889       0.95149890       1.97865137       0.00000000
Si       1.38484548       2.01580605       2.72195263       0.00000000
Si      -2.35625076      -2.80718144       0.41717706       0.00000000
Si       1.70867439       3.19759668      -0.79640401       0.00000000
Si       3.79781802      -0.36391697       0.13558512       0.00000000
Si      -2.05587945       3.07211481       0.99647347       0.00000000
