10
Lattice="16.28999089631971 0.0 0.0 0.0 16.28999089631971 0.0 0.0 0.0 34.281931910070035" Properties=species:S:1:pos:R:3:initial_magmoms:R:1 pbc="T T T"
Si       0.01371015       2.22026184      -0.75879670       0.00000000
Si       0.21328921      -0.25962350       2.34515971       0.00000000
Si       1.42093858      -1.26235187      -1.42311235       0.00000000
Si      -2.12335558      -0.69818030      -0.80343181       0.00000000
Si       0.09008142      -0.66672431      -3.36017972       0.00000000
Si      -3.21884179       1.32154254      -0.01391847       0.00000000
Si      -0.29024188       1.64380761      -3.12305146       0.00000000
Si       1.59427396      -3.34069523      -0.27274720       0.00000000
Si       1.97603011       3.16636875       0.20006947       0.00000000
Si      -0.81279250      -2.41099235       2.74924107       0.00000000
