10
Lattice="16.28999089631971 0.0 0.0 0.0 16.28999089631971 0.0 0.0 0.0 34.281931910070035" Properties=species:S:1:pos:R:3:initial_magmoms:R:1 pbc="T T T"
Si       2.23572105       0.46667592      -0.03016812       0.00000000
Si      -0.12052971      -2.34050552       0.38700895       0.00000000
Si      -0.45116784       1.41817482       1.94848325       0.00000000
Si       0.75559536       0.62307621      -2.56603832       0.00000000
Si      -3.34722033       1.25434629      -0.22684367       0.00000000
Si       0.17984160       3.53879073       0.96630535       0.00000000
Si      -1.76132367       3.19585365      -0.59530608       0.00000000
Si       2.42145963       2.71114470       0.68509051       0.00000000
Si      -2.46182625      -2.80609001       0.09681223       0.00000000
Si      -0.92093886       2.43758673      -2.69195593       0.00000000
