10
Lattice="16.28999089631971 0.0 0.0 0.0 16.28999089631971 0.0 0.0 0.0 34.281931910070035" Properties=species:S:1:pos:R:3:initial_magmoms:R:1 pbc="T T T"
Si      -1.30456836      -1.07665497       1.59887592       0.00000000
Si      -1.40945967       1.96530705      -0.26331967       0.00000000
Si       2.07282105       0.00131949       1.30943340       0.00000000
Si       0.18451683      -1.31230611      -2.06336207       0.00000000
Si      -3.32066763      -0.79623891       0.39962470       0.00000000
Si       2.55990834      -1.39000941      -2.15462062       0.00000000
Si       2.42646066       2.27903616       1.57117610       0.00000000
Si       3.52061109      -1.30290678      -0.02451160       0.00000000
Si       1.88778294       3.25474200      -0.56914895       0.00000000
Si      -1.13458221       0.05887206       3.69549148       0.00000000
