10
Lattice="16.28999089631971 0.0 0.0 0.0 16.28999089631971 0.0 0.0 0.0 34.281931910070035" Properties=species:S:1:pos:R:3:initial_magmoms:R:1 pbc="T T T"
Si       0.35363961       2.27771667       0.26174270       0.00000000
Si       1.44779004      -1.30422627      -1.33394500       0.00000000
Si       0.15899040      -1.06969914       2.15887159       0.00000000
Si      -2.07282105      -0.00131949      -1.30943340       0.00000000
Si      -0.26691165      -3.13618762       1.17573379       0.00000000
Si      -3.37738941      -1.07797446       0.28944251       0.00000000
Si      -0.18503811       3.25342251      -1.87858235       0.00000000
Si       0.48708729      -1.39132890      -3.46405403       0.00000000
Si      -0.50124330       2.79655317       2.49836575       0.00000000
Si       1.35027810      -3.53985677      -0.55807588       0.00000000
