10
Lattice="16.28999089631971 0.0 0.0 0.0 16.28999089631971 0.0 0.0 0.0 34.281931910070035" Properties=species:S:1:pos:R:3:initial_magmoms:R:1 pbc="T T T"
Si       2.28366252       0.37849000       0.49626552       0.00000000
Si      -0.21328921       0.25962350      -2.34515971       0.00000000
Si      -1.34313398       1.29669377       1.46990722       0.00000000
Si      -1.02608171      -2.15136884       0.40408136       0.00000000
Si      -0.50649587      -0.12641040       3.24831771       0.00000000
Si      -3.37229783       0.91182298       0.03123086       0.00000000
Si      -3.30922295      -1.40263157       0.25553766       0.00000000
Si       2.46143529       2.66521667       0.01408988       0.00000000
Si      -2.33664479      -0.43855679      -3.14859151       0.00000000
Si      -0.19957905       2.47988534      -3.10395641       0.00000000
