10
Lattice="16.28999089631971 0.0 0.0 0.0 16.28999089631971 0.0 0.0 0.0 34.281931910070035" Properties=species:S:1:pos:R:3:initial_magmoms:R:1 pbc="T T T"
Si       1.69762977      -0.26090064       1.57888954       0.00000000
Si      -0.82425771      -2.04784848      -0.86335666       0.00000000
Si      -1.71530442       0.97787241       1.34810344       0.00000000
Si       0.05349636       1.13339304      -2.15743174       0.00000000
Si      -2.24906256       0.72275472      -2.35530717       0.00000000
Si      -3.04482906       1.75831002      -0.42177084       0.00000000
Si       0.74955177       3.30416586      -1.61927368       0.00000000
Si       0.71373006      -2.73285927      -2.49692591       0.00000000
Si       1.56877587      -2.40943761       2.43940079       0.00000000
Si      -2.65266360      -1.60560756      -2.26973942       0.00000000
