10
Lattice="16.28999089631971 0.0 0.0 0.0 16.28999089631971 0.0 0.0 0.0 34.281931910070035" Properties=species:S:1:pos:R:3:initial_magmoms:R:1 pbc="T T T"
Si       1.35812988       1.35760860       1.35646824       0.00000000
Si      -1.35687555       1.35804843      -1.35753098       0.00000000
Si      -1.35610992      -1.35812988       1.35835375       0.00000000
Si       1.35845568      -1.35734796      -1.35746242       0.00000000
Si      -2.71388142       0.00099369      -2.71386209       0.00000000
Si      -2.71305063      -0.00057015       2.71489055       0.00000000
Si      -2.71520091      -2.71404432       0.00034282       0.00000000
Si      -2.71448415       2.71513575       0.00126843       0.00000000
Si       0.00091224      -2.71546155      -2.71465058       0.00000000
Si       2.71557558      -2.71490769      -0.00023997       0.00000000
