10
Lattice="16.28999089631971 0.0 0.0 0.0 16.28999089631971 0.0 0.0 0.0 34.281931910070035" Properties=species:S:1:pos:R:3:initial_magmoms:R:1 pbc="T T T"
Si      -1.35571896       1.35526284      -1.35605686       0.00000000
Si       1.35809730       1.35630540       1.35886798       0.00000000
Si      -1.35685926      -1.35804843       1.35886798       0.00000000
Si       1.35868374      -1.36016613      -1.36188479       0.00000000
Si      -2.68965819      -0.00601101      -2.73211037       0.00000000
Si       2.71344159       2.71254564       0.00119987       0.00000000
Si      -2.71308321       2.71585251       0.00095989       0.00000000
Si      -2.71386513      -2.71510317       0.00253686       0.00000000
Si       0.00074934       2.71415835       2.71663893       0.00000000
Si       2.70910845      -0.00524538      -2.72260742       0.00000000
