10
Lattice="16.28999089631971 0.0 0.0 0.0 16.28999089631971 0.0 0.0 0.0 34.281931910070035" Properties=species:S:1:pos:R:3:initial_magmoms:R:1 pbc="T T T"
Si       1.35534429       1.35624024      -1.35766811       0.00000000
Si       1.35775521      -1.35695700       1.35777095       0.00000000
Si      -1.35734796       1.35785295       1.35777095       0.00000000
Si      -1.35809730      -1.35630540      -1.35886798       0.00000000
Si      -2.71195920       0.00286704       2.71547334       0.00000000
Si      -2.71381626      -0.00104256      -2.71492483       0.00000000
Si       0.00004887      -2.71479366       2.71399922       0.00000000
Si      -2.71495656      -2.71435383       0.00000000       0.00000000
Si       2.71503801       2.71528236      -0.00003428       0.00000000
Si       2.71557558      -2.71497285       0.00030854       0.00000000
