10
Lattice="16.28999089631971 0.0 0.0 0.0 16.28999089631971 0.0 0.0 0.0 34.281931910070035" Properties=species:S:1:pos:R:3:initial_magmoms:R:1 pbc="T T T"
Si      -0.50762898       1.35084825       1.89802022       0.00000000
Si       1.67659938       1.16877492      -1.26150724       0.00000000
Si      -1.45002177      -1.08664074      -1.57878669       0.00000000
Si       0.93211380      -2.21744367       0.29647031       0.00000000
Si      -2.94272334       0.13502781      -0.40922365       0.00000000
Si       3.12228801      -0.64769040      -1.79291176       0.00000000
Si       0.18740016       0.05069448       3.72110010       0.00000000
Si       2.86280460      -1.75462848       1.65280142       0.00000000
Si       1.96146261      -2.78762625      -1.81564069       0.00000000
Si       0.31949577       3.57014898       1.48636255       0.00000000
