10
Lattice="16.28999089631971 0.0 0.0 0.0 16.28999089631971 0.0 0.0 0.0 34.281931910070035" Properties=species:S:1:pos:R:3:initial_magmoms:R:1 pbc="T T T"
Si      -0.60191550      -2.29814433       0.20833142       0.00000000
Si      -0.08596233       0.95641848      -2.18890258       0.00000000
Si       2.29426731      -0.50070573       0.47497643       0.00000000
Si      -0.71446311       1.78235406       1.44306445       0.00000000
Si       0.47436480       3.16146546      -1.66552003       0.00000000
Si      -2.12762061       0.34795440      -3.14554042       0.00000000
Si       3.58554303       0.95861763      -0.90843742       0.00000000
Si       0.82552833      -3.43991043      -1.45108642       0.00000000
Si      -2.70765864      -2.65390164      -0.79438137       0.00000000
Si       1.31448897      -0.17397720      -3.65517590       0.00000000
