10
Lattice="16.28999089631971 0.0 0.0 0.0 16.28999089631971 0.0 0.0 0.0 34.281931910070035" Properties=species:S:1:pos:R:3:initial_magmoms:R:1 pbc="T T T"
Si      -1.35405301       1.35509994      -1.35794236       0.00000000
Si       1.35838578       1.35534429       1.35732529       0.00000000
Si      -1.35594265      -1.36001952       1.35759954       0.00000000
Si       1.35667045      -1.36003581      -1.36353032       0.00000000
Si      -2.71286707       2.71199178       0.00047995       0.00000000
Si       0.00065670       2.70311373      -2.72229545       0.00000000
Si       0.00144972       2.71256193       2.71533622       0.00000000
Si      -2.71390963      -0.00265527       2.71509624       0.00000000
Si       2.71615728       2.71422351       0.00034282       0.00000000
Si       2.71607583      -0.00208512       2.71550763       0.00000000
