10
Lattice="16.28999089631971 0.0 0.0 0.0 16.28999089631971 0.0 0.0 0.0 34.281931910070035" Properties=species:S:1:pos:R:3:initial_magmoms:R:1 pbc="T T T"
Si       0.77408451      -2.19895452      -0.14442986       0.00000000
Si      -0.78029100       1.53512073       1.60820061       0.00000000
Si       1.06310169       1.36638891      -1.78687814       0.00000000
Si      -1.66935033      -0.78481962      -1.80035094       0.00000000
Si      -0.22366170      -2.60128494      -2.33175547       0.00000000
Si      -3.02645394       1.61655444       0.94751885       0.00000000
Si       0.73378305       3.25883079       1.29191533       0.00000000
Si       0.77076135       3.58243557      -1.03744040       0.00000000
Si      -0.48314511      -3.70822302       1.11395772       0.00000000
Si      -3.34594971      -1.95359454      -0.53884371       0.00000000
