10
Lattice="16.28999089631971 0.0 0.0 0.0 16.28999089631971 0.0 0.0 0.0 34.281931910070035" Properties=species:S:1:pos:R:3:initial_magmoms:R:1 pbc="T T T"
Si      -1.35569615      -1.35672894       1.35646824       0.00000000
Si       1.35775521      -1.35790182      -1.35763383       0.00000000
Si      -1.35769005       1.35742941      -1.35818234       0.00000000
Si       1.35871632       1.35870003       1.35595401       0.00000000
Si      -0.00027693       2.71231758       2.71567904       0.00000000
Si       2.71495656       0.00027693       2.71314217       0.00000000
Si      -2.71462611       2.71464705      -0.00017141       0.00000000
Si       2.71495656       2.71454931       0.00023997       0.00000000
Si       2.71414206      -0.00092853      -2.71602186       0.00000000
Si       2.71498914      -2.71518462       0.00006856       0.00000000
