10
Lattice="16.28999089631971 0.0 0.0 0.0 16.28999089631971 0.0 0.0 0.0 34.281931910070035" Properties=species:S:1:pos:R:3:initial_magmoms:R:1 pbc="T T T"
Si      -0.11056023       1.58510140      -1.64635642       0.00000000
Si       2.18470077      -0.09865224       0.80548872       0.00000000
Si      -0.56032713      -2.20504698      -0.52338255       0.00000000
Si      -1.69735284       0.54810963       1.53099765       0.00000000
Si      -2.41219062       1.41222897      -2.17176160       0.00000000
Si      -3.50016714       0.46450935      -0.26112562       0.00000000
Si      -1.18882791      -1.37911140       3.10858448       0.00000000
Si      -0.47436480      -3.16146546       1.66552003       0.00000000
Si       0.31534182       3.65158988      -0.66321863       0.00000000
Si       3.52577502       1.43189100      -0.37213058       0.00000000
