10
Lattice="16.28999089631971 0.0 0.0 0.0 16.28999089631971 0.0 0.0 0.0 34.281931910070035" Properties=species:S:1:pos:R:3:initial_magmoms:R:1 pbc="T T T"
Si      -1.49198481      -1.03874814       1.50762220       0.00000000
Si      -1.13915970       1.81029697      -1.16503783       0.00000000
Si       1.15235460       1.54707663       1.51528079       0.00000000
Si       0.83173482      -1.75288545      -1.54690448       0.00000000
Si       0.98689707       2.80424924      -1.77151982       0.00000000
Si      -0.08845470      -2.36863116       2.89602408       0.00000000
Si       2.73080673      -2.57675220      -0.10846809       0.00000000
Si      -3.31286472      -1.99067058       0.26597347       0.00000000
Si       2.36970630      -0.70294608      -3.01262930       0.00000000
Si       1.92244806       3.39432191       0.34110031       0.00000000
