10
Lattice="16.28999089631971 0.0 0.0 0.0 16.28999089631971 0.0 0.0 0.0 34.281931910070035" Properties=species:S:1:pos:R:3:initial_magmoms:R:1 pbc="T T T"
Si       1.04027307       1.77331311      -1.17360831       0.00000000
Si      -1.72155978      -1.06275960      -1.24296070       0.00000000
Si      -1.31279481       1.55852946       1.31766107       0.00000000
Si       1.80348286      -1.82094507       0.20846854       0.00000000
Si      -0.33764283      -2.35212939      -2.57820841       0.00000000
Si       2.37044328       0.39786696      -2.57622006       0.00000000
Si      -0.70540587      -1.88512767       2.96477169       0.00000000
Si       0.27530100       0.08449623       3.72243709       0.00000000
Si       0.20171907       2.36620395       2.96621153       0.00000000
Si      -2.67775020      -2.72595231       0.11361039       0.00000000
