10
Lattice="16.28999089631971 0.0 0.0 0.0 16.28999089631971 0.0 0.0 0.0 34.281931910070035" Properties=species:S:1:pos:R:3:initial_magmoms:R:1 pbc="T T T"
Si      -0.87187405      -1.85023449      -1.21145559       0.00000000
Si       1.82987851       0.84789450      -1.35266294       0.00000000
Si       2.23919734      -0.25542720       0.95259257       0.00000000
Si      -1.80348286       1.82094507      -0.20846854       0.00000000
Si      -2.14112569      -0.53118432      -2.78667696       0.00000000
Si       0.56696042       2.21881203      -2.78468860       0.00000000
Si      -2.50888873      -0.06418260       2.75630315       0.00000000
Si       2.98874911       2.30755995       0.19208177       0.00000000
Si       1.94641717      -1.62655650       2.89295100       0.00000000
Si      -2.76889342      -2.68622100       0.32979237       0.00000000
