10
Lattice="16.28999089631971 0.0 0.0 0.0 16.28999089631971 0.0 0.0 0.0 34.281931910070035" Properties=species:S:1:pos:R:3:initial_magmoms:R:1 pbc="T T T"
Si       0.95421933       1.39013973      -1.58382614       0.00000000
Si       0.61936209       1.30494303       1.81749192       0.00000000
Si      -2.36964114       0.25366788      -0.02036348       0.00000000
Si       1.03671189      -1.99241361      -0.95228404       0.00000000
Si       1.21446837      -0.60259968       3.07443965       0.00000000
Si       0.03391578      -1.78526997      -3.03405552       0.00000000
Si      -0.02575449       0.51834780      -3.52874407       0.00000000
Si      -3.06569655      -1.91710494      -0.55852155       0.00000000
Si       3.24490188       0.87087969      -1.77433094       0.00000000
Si      -2.93278644       1.40823792      -1.97827427       0.00000000
