10
Lattice="16.28999089631971 0.0 0.0 0.0 16.28999089631971 0.0 0.0 0.0 34.281931910070035" Properties=species:S:1:pos:R:3:initial_magmoms:R:1 pbc="T T T"
Si       1.40286222      -0.91116486       1.65523544       0.00000000
Si      -2.27271564      -0.28587321       0.65817918       0.00000000
Si       0.18736758      -0.96788664      -2.21523111       0.00000000
Si       0.36331587       2.42292573       0.55481910       0.00000000
Si       0.18555939       1.03311180      -3.47190459       0.00000000
Si       0.94732866      -3.24228015       1.49195051       0.00000000
Si      -2.40156954      -2.43441018       1.51869043       0.00000000
Si       2.88424780       2.41078968      -0.12708319       0.00000000
Si       1.41929883       0.86167584       3.38705677       0.00000000
Si      -1.08183519      -3.62715095       0.05327415       0.00000000
