10
Lattice="16.28999089631971 0.0 0.0 0.0 16.28999089631971 0.0 0.0 0.0 34.281931910070035" Properties=species:S:1:pos:R:3:initial_magmoms:R:1 pbc="T T T"
Si      -1.35365013      -1.35720135      -1.36973535       0.00000000
Si       1.36017488       1.35407367      -1.37038671       0.00000000
Si       1.39446654      -1.32470280       1.39075019       0.00000000
Si      -1.14432363       1.52730153       1.45437749       0.00000000
Si       2.30182817       0.45670644       2.78180892       0.00000000
Si       0.68659092       2.32380108       2.77200428       0.00000000
Si      -2.49072471       0.08547363       2.84649896       0.00000000
Si       2.72463675      -2.70014895      -0.01186156       0.00000000
Si      -2.70171279       2.72554506       0.01786090       0.00000000
Si      -2.72456766      -2.71160082       0.00397671       0.00000000
