10
Lattice="16.28999089631971 0.0 0.0 0.0 16.28999089631971 0.0 0.0 0.0 34.281931910070035" Properties=species:S:1:pos:R:3:initial_magmoms:R:1 pbc="T T T"
Si       1.34640108       1.44182790      -1.39212147       0.00000000
Si      -0.97202430       0.74560959       2.12688653       0.00000000
Si       1.53212337      -1.62496008       1.03552061       0.00000000
Si      -1.56688623      -1.30750056      -1.44632123       0.00000000
Si      -2.13284970      -1.39432626       2.10415759       0.00000000
Si      -0.08669538      -2.49175098       2.63487648       0.00000000
Si       2.49072471      -0.08547363      -2.84649896       0.00000000
Si      -0.21098808       2.64007143      -2.82863806       0.00000000
Si       3.17731563       2.23832745      -0.07449468       0.00000000
Si      -3.36785976      -2.01974823       0.01289001       0.00000000
