10
Lattice="16.28999089631971 0.0 0.0 0.0 16.28999089631971 0.0 0.0 0.0 34.281931910070035" Properties=species:S:1:pos:R:3:initial_magmoms:R:1 pbc="T T T"
Si       0.05027094       1.04032827       2.03216550       0.00000000
Si       0.61411671      -2.22172794      -0.07394617       0.00000000
Si       1.14849387       1.34249148      -1.51581075       0.00000000
Si      -2.22078312      -0.09226656      -0.71457299       0.00000000
Si       0.26999046       0.35342784      -3.46281988       0.00000000
Si      -2.00614608       0.61620183      -2.98355820       0.00000000
Si      -1.24100478      -0.41899509       3.41557935       0.00000000
Si      -0.36585711      -3.09351987      -2.01886410       0.00000000
Si       2.25927639       1.38344454       2.71050246       0.00000000
Si      -3.62123442       1.03812912       0.75170034       0.00000000
