10
Lattice="16.28999089631971 0.0 0.0 0.0 16.28999089631971 0.0 0.0 0.0 34.281931910070035" Properties=species:S:1:pos:R:3:initial_magmoms:R:1 pbc="T T T"
Si       1.97502471      -1.18491831      -0.19749832       0.00000000
Si       0.16907391       2.14816230      -0.99019987       0.00000000
Si      -1.81094301      -1.54220688      -0.37333045       0.00000000
Si      -0.87962742       0.52703037       2.24275952       0.00000000
Si      -2.03993154       1.80504603      -1.66853684       0.00000000
Si      -3.33120726       0.34572267      -0.28512299       0.00000000
Si       2.39553314      -0.84502746      -2.57056354       0.00000000
Si       1.30509520      -3.46188564       0.20171500       0.00000000
Si      -1.21583673      -3.44974959       0.88361729       0.00000000
Si      -3.06698346      -0.46999908       2.13244020       0.00000000
