10
Lattice="16.28999089631971 0.0 0.0 0.0 16.28999089631971 0.0 0.0 0.0 34.281931910070035" Properties=species:S:1:pos:R:3:initial_magmoms:R:1 pbc="T T T"
Si      -1.46286969      -0.75344508       1.65622962       0.00000000
Si      -1.11153838       2.02935933      -0.37504454       0.00000000
Si       2.23738263       0.28891944       0.94649039       0.00000000
Si       0.22457394      -1.50653178      -1.91711527       0.00000000
Si       3.11759649      -1.71844839       0.04946886       0.00000000
Si      -0.10560807      -2.29164462       2.73018030       0.00000000
Si       0.00677664       3.01852071      -2.34282854       0.00000000
Si      -2.27475841       1.08229131       2.95764105       0.00000000
Si       0.51735411      -0.13540248      -3.85747370       0.00000000
Si      -1.87595151       2.99586132       1.65742949       0.00000000
