10
Lattice="16.28999089631971 0.0 0.0 0.0 16.28999089631971 0.0 0.0 0.0 34.281931910070035" Properties=species:S:1:pos:R:3:initial_magmoms:R:1 pbc="T T T"
Si       1.28687742       1.39756913      -1.49856693       0.00000000
Si       0.46547046      -0.63884493       2.32537902       0.00000000
Si      -1.32255252      -1.32756984      -1.58934553       0.00000000
Si       0.17313012       1.57720173       3.07481676       0.00000000
Si      -2.76244191      -2.52444501      -0.11422746       0.00000000
Si       2.03023899       3.24720692      -0.09026438       0.00000000
Si       2.64227058      -0.00262269      -3.16398411       0.00000000
Si      -1.61409465       2.99647124       2.33103554       0.00000000
Si      -0.07861554       2.69835283      -3.16765228       0.00000000
Si      -0.06025671      -2.71205694      -3.17502290       0.00000000
