10
Lattice="16.28999089631971 0.0 0.0 0.0 16.28999089631971 0.0 0.0 0.0 34.281931910070035" Properties=species:S:1:pos:R:3:initial_magmoms:R:1 pbc="T T T"
Si       0.55759041      -1.76604777       1.40730837       0.00000000
Si       0.85307472       2.08298601       0.74288988       0.00000000
Si       1.21316584      -0.55750896      -1.99253556       0.00000000
Si      -2.48818347       0.17453106      -0.58635849       0.00000000
Si      -0.76993056       3.44593026      -0.44511685       0.00000000
Si      -2.78052381       2.39057772       0.16307924       0.00000000
Si       0.16746120      -0.92352897       3.56412304       0.00000000
Si       0.57104595       2.38356813       3.05753865       0.00000000
Si      -3.55128516      -1.19185785       1.20051964       0.00000000
Si       2.61702175      -2.82383892       1.02784146       0.00000000
