10
Lattice="16.28999089631971 0.0 0.0 0.0 16.28999089631971 0.0 0.0 0.0 34.281931910070035" Properties=species:S:1:pos:R:3:initial_magmoms:R:1 pbc="T T T"
Si       0.09751194       2.23563050      -0.77586912       0.00000000
Si      -1.27615860      -1.62509040      -1.17501387       0.00000000
Si       2.13452757      -0.72747882       0.76321908       0.00000000
Si      -1.61718975       0.40366915       1.73380968       0.00000000
Si       1.85521923      -0.70894080      -2.37340804       0.00000000
Si       2.01914550       0.25045875       3.00803551       0.00000000
Si      -0.86319081       2.14852787      -2.90597815       0.00000000
Si      -3.54553479      -1.17613800      -0.66099030       0.00000000
Si      -1.35027810       3.53985677       0.55807588       0.00000000
Si       0.15369615       0.24521337      -3.83213934       0.00000000
