10
Lattice="16.28999089631971 0.0 0.0 0.0 16.28999089631971 0.0 0.0 0.0 34.281931910070035" Properties=species:S:1:pos:R:3:initial_magmoms:R:1 pbc="T T T"
Si       2.09805493       1.00939356      -0.31193147       0.00000000
Si      -2.13452757       0.72747882      -0.76321908       0.00000000
Si       0.56824407      -2.35463805      -0.17394662       0.00000000
Si      -0.11538207       0.97793757       2.24481644       0.00000000
Si      -0.27930834       0.01853802      -3.13662711       0.00000000
Si       1.71773163       3.31992548      -0.07480322       0.00000000
Si      -1.45645632      -0.55260567       3.42243574       0.00000000
Si       3.42891209       0.41376600       1.62513589       0.00000000
Si      -2.03701563       2.96310932      -1.53908819       0.00000000
Si      -0.31025934      -3.34370169      -2.12095575       0.00000000
