10
Lattice="16.28999089631971 0.0 0.0 0.0 16.28999089631971 0.0 0.0 0.0 34.281931910070035" Properties=species:S:1:pos:R:3:initial_magmoms:R:1 pbc="T T T"
Si       1.22583390      -0.33099651       1.97542887       0.00000000
Si      -0.05038171       2.35312308      -0.24676148       0.00000000
Si      -2.25857170      -0.51017022       0.57528542       0.00000000
Si       1.01582322      -1.02144816      -1.98783893       0.00000000
Si      -3.26136781      -0.30302658      -1.50648606       0.00000000
Si       1.60907244      -2.65626369       1.92414307       0.00000000
Si      -2.34106426       2.87238312      -0.05625668       0.00000000
Si       3.40636443       0.36531954       1.46874163       0.00000000
Si      -0.35324751      -3.60237060       0.96527690       0.00000000
Si      -2.25676351      -2.51116866       1.83195890       0.00000000
