10
Lattice="16.28999089631971 0.0 0.0 0.0 16.28999089631971 0.0 0.0 0.0 34.281931910070035" Properties=species:S:1:pos:R:3:initial_magmoms:R:1 pbc="T T T"
Si       0.27978075       2.25873882      -0.45286457       0.00000000
Si       0.81901233      -1.17967293      -1.82979914       0.00000000
Si       1.29643965      -0.97370217       1.68012414       0.00000000
Si      -2.18053053      -0.69631605       0.50668724       0.00000000
Si       0.17384688      -3.24987129      -0.85814580       0.00000000
Si      -1.79729199      -3.02158323       0.45540144       0.00000000
Si       3.42432090      -0.17526411       1.23596718       0.00000000
Si      -1.87580979       3.11904630      -0.32091334       0.00000000
Si      -3.40636443      -0.36531954      -1.46874163       0.00000000
Si       1.65959262       3.27766203       1.20651899       0.00000000
