10
Lattice="16.28999089631971 0.0 0.0 0.0 16.28999089631971 0.0 0.0 0.0 34.281931910070035" Properties=species:S:1:pos:R:3:initial_magmoms:R:1 pbc="T T T"
Si       1.35372832       1.35462753      -1.33614247       0.00000000
Si      -1.35405153       1.35783666       1.35516553       0.00000000
Si       1.36105882      -1.35482301       1.35372568       0.00000000
Si      -1.35444177      -1.36593279      -1.36891259       0.00000000
Si       2.56216939      -0.03160260      -2.74060544       0.00000000
Si      -2.71092708       0.00063531       2.71149664       0.00000000
Si      -2.70924921       2.71365336      -0.00983892       0.00000000
Si      -2.70915147      -2.71394658      -0.00455950       0.00000000
Si       0.00328732      -2.71370223       2.71070815       0.00000000
Si       0.00329384       2.71549413       2.71139379       0.00000000
