10
Lattice="16.28999089631971 0.0 0.0 0.0 16.28999089631971 0.0 0.0 0.0 34.281931910070035" Properties=species:S:1:pos:R:3:initial_magmoms:R:1 pbc="T T T"
Si      -1.70829062      -0.99492804       1.24902312       0.00000000
Si       1.12165447       1.72196703       1.24895113       0.00000000
Si      -1.57876883       0.84991446      -1.60836177       0.00000000
Si       1.82125458      -1.77556113      -0.24644270       0.00000000
Si      -0.32476390      -2.30127201       2.67007513       0.00000000
Si       2.74543515      -0.16042392      -2.33777884       0.00000000
Si       2.38340619       0.41928831       2.70284524       0.00000000
Si      -2.58376409      -2.70342324      -0.24894528       0.00000000
Si      -0.69914141       0.32288409      -3.85112129       0.00000000
Si       3.59184726      -0.96694182       1.29838227       0.00000000
