10
Lattice="16.28999089631971 0.0 0.0 0.0 16.28999089631971 0.0 0.0 0.0 34.281931910070035" Properties=species:S:1:pos:R:3:initial_magmoms:R:1 pbc="T T T"
Si       1.20844107      -1.38623013      -1.40446297       0.00000000
Si      -1.26175172       1.30267872      -1.45389412       0.00000000
Si      -1.35372832      -1.35462753       1.33614247       0.00000000
Si       1.36573731       1.36189287       1.33062308       0.00000000
Si       2.37503313       0.33120828      -2.52060171       0.00000000
Si       0.60264855       2.19527298      -2.64888614       0.00000000
Si      -2.38340619      -0.41928831      -2.70284524       0.00000000
Si      -0.56215161      -2.19484944      -2.94928795       0.00000000
Si      -2.70777986       0.00320913       2.69130800       0.00000000
Si       0.00733050      -2.70945054       2.68986815       0.00000000
