10
Lattice="16.28999089631971 0.0 0.0 0.0 16.28999089631971 0.0 0.0 0.0 34.281931910070035" Properties=species:S:1:pos:R:3:initial_magmoms:R:1 pbc="T T T"
Si       1.83927784       1.17667557      -0.76479605       0.00000000
Si       0.79753234      -0.40436667       2.15616331       0.00000000
Si      -2.05943134       1.05779115       0.37946692       0.00000000
Si      -0.18861214      -1.74786813      -2.00988223       0.00000000
Si      -3.11751571      -0.99976617       0.06547853       0.00000000
Si       3.08670088      -0.74710827       1.62691855       0.00000000
Si       0.97357837       2.13017814      -2.70378320       0.00000000
Si      -0.15295984       1.51449759       3.31005950       0.00000000
Si      -2.37330706      -2.53219905      -1.60189273       0.00000000
Si       3.83301094      -0.18658566      -0.77538917       0.00000000
