10
Lattice="16.28999089631971 0.0 0.0 0.0 16.28999089631971 0.0 0.0 0.0 34.281931910070035" Properties=species:S:1:pos:R:3:initial_magmoms:R:1 pbc="T T T"
Si      -1.43981608       0.80886366       1.60226983       0.00000000
Si       0.45506115       1.92658572      -1.24357778       0.00000000
Si       2.00942037      -0.69418206       0.97833832       0.00000000
Si      -1.26812274      -1.51255908      -1.29188104       0.00000000
Si      -3.48657218       0.62716500       0.41306323       0.00000000
Si       2.74422969       1.58384412      -1.77282254       0.00000000
Si       3.54084327      -0.39786696      -0.77909162       0.00000000
Si      -3.30853877      -0.39643344      -1.74464277       0.00000000
Si      -1.66692964      -3.42612909       0.00833051       0.00000000
Si       1.81988622      -2.97484722       1.56243420       0.00000000
