10
Lattice="16.28999089631971 0.0 0.0 0.0 16.28999089631971 0.0 0.0 0.0 34.281931910070035" Properties=species:S:1:pos:R:3:initial_magmoms:R:1 pbc="T T T"
Si      -2.00942037       0.69418206      -0.97833832       0.00000000
Si       1.53142290       0.29631510      -1.75742994       0.00000000
Si      -0.18953415      -2.28066516       0.58409588       0.00000000
Si       0.93387312       1.26863262       1.81409800       0.00000000
Si       3.01855329       0.30447639       1.44930376       0.00000000
Si       0.73480932       2.27802618      -2.75116086       0.00000000
Si      -1.55435922       2.62076778      -2.22191609       0.00000000
Si       3.64835727       0.58298652      -0.78073715       0.00000000
Si      -3.44923645       1.50304572       0.62393151       0.00000000
Si       0.79472394      -2.66233986       2.64498965       0.00000000
