10
Lattice="16.28999089631971 0.0 0.0 0.0 16.28999089631971 0.0 0.0 0.0 34.281931910070035" Properties=species:S:1:pos:R:3:initial_magmoms:R:1 pbc="T T T"
Si      -1.33265558      -1.35975888       1.35883369       0.00000000
Si       1.35953082      -1.35298224      -1.35801093       0.00000000
Si      -1.35462427       1.36037790      -1.35708532       0.00000000
Si       1.36609569       1.36384767       1.34488094       0.00000000
Si      -2.56987277       0.05528826       2.73511690       0.00000000
Si       2.71474479      -2.70923877       0.00654785       0.00000000
Si       0.00141723      -2.71226871      -2.71513052       0.00000000
Si      -2.71349587       0.00257382      -2.71495911       0.00000000
Si      -2.71365179      -2.71492398       0.00250258       0.00000000
Si       2.71660185       0.00283446      -2.71557619       0.00000000
