10
Lattice="16.28999089631971 0.0 0.0 0.0 16.28999089631971 0.0 0.0 0.0 34.281931910070035" Properties=species:S:1:pos:R:3:initial_magmoms:R:1 pbc="T T T"
Si      -1.23721719       1.41504714       1.37628321       0.00000000
Si       1.33265558       1.35975888      -1.35883369       0.00000000
Si      -1.38099622      -1.35516510      -1.35633111       0.00000000
Si       1.35303437      -1.28969559       1.47518664       0.00000000
Si      -2.05458018      -0.38543769       2.78605988       0.00000000
Si      -0.43934293      -2.25253233       2.79586452       0.00000000
Si       2.59216580       0.37077669       2.75126370       0.00000000
Si       2.69124158      -2.69645112       0.02307175       0.00000000
Si       2.69218640       0.00677664      -2.71684462       0.00000000
Si       2.69875127       2.72360655      -0.01395275       0.00000000
