10
Lattice="10.86 0.0 0.0 0.0 10.86 0.0 0.0 0.0 10.86" Properties=species:S:1:pos:R:3:initial_magmoms:R:1 pbc="T T T"
Si      -1.28746386       1.21822050      -1.41371136       0.00000000
Si       1.42268172       1.41658926       1.20997776       0.00000000
Si      -1.28746386      -1.49677950       1.30128864       0.00000000
Si       1.42753614      -1.49677950      -1.41371136       0.00000000
Si       2.79683010      -0.22635498       2.27697276       0.00000000
Si      -2.64496386       2.57572050      -0.05621136       0.00000000
Si      -2.64496386      -0.13927950       2.65878864       0.00000000
Si       0.07003614       2.57572050      -2.77121136       0.00000000
Si      -2.64496386      -0.13927950      -2.77121136       0.00000000
Si       2.89668780       2.57652414      -0.18177468       0.00000000
