10
Lattice="10.86 0.0 0.0 0.0 10.86 0.0 0.0 0.0 10.86" Properties=species:S:1:pos:R:3:initial_magmoms:R:1 pbc="T T T"
Si       1.24584834      -1.35830364      -1.23193668       0.00000000
Si      -1.47400608      -1.15993488       1.39175244       0.00000000
Si      -1.46915166       1.35669636      -1.23193668       0.00000000
Si       1.24584834       1.35669636       1.48306332       0.00000000
Si       2.60334834      -0.00080364      -2.58943668       0.00000000
Si      -0.09985770      -2.80287912       2.45874744       0.00000000
Si      -0.11165166       2.71419636      -2.58943668       0.00000000
Si      -0.11165166      -2.71580364      -2.58943668       0.00000000
Si       2.60334834       2.71419636       0.12556332       0.00000000
Si       2.49567144       0.02743236       2.82178638       0.00000000
