10
Lattice="10.86 0.0 0.0 0.0 10.86 0.0 0.0 0.0 10.86" Properties=species:S:1:pos:R:3:initial_magmoms:R:1 pbc="T T T"
Si      -1.26617826       1.43562684      -1.26003150       0.00000000
Si      -1.26617826      -1.27937316       1.45496850       0.00000000
Si       1.55593392      -1.09988994      -1.34034120       0.00000000
Si       1.44882174       1.43562684       1.45496850       0.00000000
Si       2.68607982      -2.54801664       0.05305110       0.00000000
Si      -2.62367826       0.07812684      -2.61753150       0.00000000
Si      -2.62367826      -2.63687316       0.09746850       0.00000000
Si       0.12803940       2.88386214      -2.45133006       0.00000000
Si      -2.62367826       2.79312684       0.09746850       0.00000000
Si      -2.62367826       0.07812684       2.81246850       0.00000000
