10
Lattice="16.28999089631971 0.0 0.0 0.0 16.28999089631971 0.0 0.0 0.0 34.64500226677339" Properties=species:S:1:pos:R:3:initial_magmoms:R:1 pbc="T T T"
Si      -0.66903030       0.42863877      -2.18710557       0.00000000
Si       2.31541173      -0.00764001       0.28395060       0.00000000
Si      -1.03542498       1.63336572       1.35022043       0.00000000
Si      -0.73678041      -2.20077900       0.44089255       0.00000000
Si       2.51252073      -1.32449103      -1.64054571       0.00000000
Si       0.86027490      -1.03491999      -3.31223729       0.00000000
Si       2.69917155       0.01536147       2.65363543       0.00000000
Si       3.15998307       2.08217151      -0.30498013       0.00000000
Si      -3.09978242      -2.05638444       0.78020589       0.00000000
Si      -2.01493779       0.50525064       3.18519400       0.00000000
