10
Lattice="16.28999089631971 0.0 0.0 0.0 16.28999089631971 0.0 0.0 0.0 34.64500226677339" Properties=species:S:1:pos:R:3:initial_magmoms:R:1 pbc="T T T"
Si       2.00833836       0.92507652       0.72338805       0.00000000
Si      -1.73572984      -0.91813698       1.26475116       0.00000000
Si       0.87398910      -2.02517280      -0.82850105       0.00000000
Si      -0.44592022       1.82222613      -1.56675181       0.00000000
Si      -2.71615978      -1.10381040      -1.04846229       0.00000000
Si       1.85350191      -0.89705772      -2.66347462       0.00000000
Si       3.14590164       0.61033743      -1.36882480       0.00000000
Si      -1.25989894       0.35473104       3.27520176       0.00000000
Si       0.15203650       0.52041663      -3.55097614       0.00000000
Si       2.50459692      -2.56585419       0.78256175       0.00000000
