10
Lattice="16.28999089631971 0.0 0.0 0.0 16.28999089631971 0.0 0.0 0.0 34.64500226677339" Properties=species:S:1:pos:R:3:initial_magmoms:R:1 pbc="T T T"
Si       1.34043894      -1.53270981       1.08560175       0.00000000
Si      -2.00833836      -0.92507652      -0.72338805       0.00000000
Si      -0.44205196       2.00229254       1.18000944       0.00000000
Si       1.13756328      -0.31473909      -2.09221286       0.00000000
Si       3.37209516      -0.44224092       0.69601848       0.00000000
Si      -2.45425859       0.89714961      -2.29013986       0.00000000
Si      -1.13434926      -2.95024932      -1.55188910       0.00000000
Si       0.49625856      -3.49093071       0.05917370       0.00000000
Si       1.34791605       1.88287055      -2.80520740       0.00000000
Si      -0.86780740       2.68472951      -2.33486659       0.00000000
