10
Lattice="16.28999089631971 0.0 0.0 0.0 16.28999089631971 0.0 0.0 0.0 34.64500226677339" Properties=species:S:1:pos:R:3:initial_magmoms:R:1 pbc="T T T"
Si      -1.39812183       1.26828076       1.53310457       0.00000000
Si       1.17066456       1.74533341      -1.23724097       0.00000000
Si      -1.61075520      -1.21122666      -1.40374495       0.00000000
Si       1.32014160      -1.42535009       1.51310053       0.00000000
Si      -0.80071866       3.20977183      -1.16657848       0.00000000
Si      -2.73329910       2.63436016       0.15050144       0.00000000
Si      -2.69925300      -2.70130621       0.12720613       0.00000000
Si       2.90537037      -2.61923719       0.12692204       0.00000000
Si      -0.04341285       2.63769961       2.90701180       0.00000000
Si       2.66914908      -0.08092383       2.90330478       0.00000000
