10
Lattice="16.28999089631971 0.0 0.0 0.0 16.28999089631971 0.0 0.0 0.0 34.64500226677339" Properties=species:S:1:pos:R:3:initial_magmoms:R:1 pbc="T T T"
Si       1.35993807      -1.35371529      -1.36120290       0.00000000
Si      -1.35685437       1.36107837      -1.35870846       0.00000000
Si      -1.34920459      -1.36550436       1.36827048       0.00000000
Si       1.36842516       1.37938833       1.37523413       0.00000000
Si      -2.49315192       0.15615594       2.71939168       0.00000000
Si       0.15684012      -2.61646380       2.79602647       0.00000000
Si       2.71145421       2.71661814      -0.00391489       0.00000000
Si       2.71551042      -2.71435471      -0.00446921       0.00000000
Si      -2.71676408      -2.71348404      -0.00166296       0.00000000
Si      -0.00037467      -2.71254881      -2.71793659       0.00000000
