10
Lattice="16.28999089631971 0.0 0.0 0.0 16.28999089631971 0.0 0.0 0.0 34.64500226677339" Properties=species:S:1:pos:R:3:initial_magmoms:R:1 pbc="T T T"
Si       0.93486681       1.80139707      -1.24150435       0.00000000
Si      -1.77429051      -0.97549407      -1.26294962       0.00000000
Si       1.85878674      -1.67511699       0.15503647       0.00000000
Si      -0.77335146      -0.52064469       2.70754309       0.00000000
Si       1.58462604      -0.59937426       2.42542867       0.00000000
Si       2.28139821       0.38656170      -2.65481336       0.00000000
Si      -0.44812161      -2.35867471      -2.65595665       0.00000000
Si      -1.51837461      -2.78598096       2.12841690       0.00000000
Si      -3.34228446      -1.94685048       0.17166608       0.00000000
Si       0.97585245      -3.63426235      -1.20245941       0.00000000
