10
Lattice="16.28999089631971 0.0 0.0 0.0 16.28999089631971 0.0 0.0 0.0 34.64500226677339" Properties=species:S:1:pos:R:3:initial_magmoms:R:1 pbc="T T T"
Si      -1.61512092      -1.13722119      -1.24815931       0.00000000
Si       1.33517727      -1.36607940       1.38260313       0.00000000
Si      -1.37886705       1.37850867       1.36844024       0.00000000
Si       1.93258044       0.57541167      -1.31707992       0.00000000
Si      -1.76593374       1.08343161      -3.17106026       0.00000000
Si       2.73329910      -2.63436016      -0.15050144       0.00000000
Si      -2.74261861      -2.67424948       0.10270863       0.00000000
Si       2.68988625       0.00333945       2.75651036       0.00000000
Si       2.84846940       2.58778053      -0.33400572       0.00000000
Si      -0.02593368       2.71726974       2.75062071       0.00000000
