10
Lattice="16.28999089631971 0.0 0.0 0.0 16.28999089631971 0.0 0.0 0.0 34.64500226677339" Properties=species:S:1:pos:R:3:initial_magmoms:R:1 pbc="T T T"
Si       1.35550719      -1.35578412      -1.35714943       0.00000000
Si       1.35703845       1.35672894       1.35694156       0.00000000
Si      -1.35798327      -1.35855342       1.35742659       0.00000000
Si      -1.36031274       1.35814617      -1.36303909       0.00000000
Si       2.71497285      -2.71370223       0.00003465       0.00000000
Si      -0.00066789       2.71394658       2.71499176       0.00000000
Si       2.71440270      -0.00022806       2.71485318       0.00000000
Si      -2.71538010      -2.71454931      -0.00003465       0.00000000
Si      -0.00091224      -2.71567332       2.71502641       0.00000000
Si      -2.71611315      -0.00061902       2.71516499       0.00000000
