10
Lattice="16.28999089631971 0.0 0.0 0.0 16.28999089631971 0.0 0.0 0.0 34.64500226677339" Properties=species:S:1:pos:R:3:initial_magmoms:R:1 pbc="T T T"
Si      -0.43090308       0.16418691      -2.29516339       0.00000000
Si       0.61191756      -2.30619159       0.34769744       0.00000000
Si      -1.70611686       0.92680326       1.44390057       0.00000000
Si       1.96030602       1.41540552       0.19411606       0.00000000
Si       0.52846389      -1.82948103      -3.16884155       0.00000000
Si      -1.11364956      -0.29431143       3.51640041       0.00000000
Si       0.81184473       2.05302870      -2.97805141       0.00000000
Si      -2.60537373       0.98321553      -2.47680724       0.00000000
Si       1.94245218      -2.17829880       2.33753425       0.00000000
Si       1.92920841      -2.86401006      -1.58521761       0.00000000
