10
Lattice="16.28999089631971 0.0 0.0 0.0 16.28999089631971 0.0 0.0 0.0 34.64500226677339" Properties=species:S:1:pos:R:3:initial_magmoms:R:1 pbc="T T T"
Si      -1.35549090      -1.35635427       1.35714943       0.00000000
Si       1.35770634      -1.35721764      -1.35805020       0.00000000
Si      -1.35842310       1.35850455      -1.35770375       0.00000000
Si       1.35711990       1.35954711       1.35801556       0.00000000
Si      -0.00335574      -2.71498914       2.71370990       0.00000000
Si       0.00066789      -2.71394658      -2.71499176       0.00000000
Si       2.71507059      -2.71417464      -0.00013858       0.00000000
Si      -2.71544526      -2.71456560       0.00017323       0.00000000
Si      -2.71546155       0.00200367      -2.71467996       0.00000000
Si      -0.00014661       2.71642266      -2.71429886       0.00000000
