10
Lattice="16.28999089631971 0.0 0.0 0.0 16.28999089631971 0.0 0.0 0.0 34.64500226677339" Properties=species:S:1:pos:R:3:initial_magmoms:R:1 pbc="T T T"
Si      -1.35321030       1.35681039      -1.35763446       0.00000000
Si      -1.35218403      -1.34198649       1.37509555       0.00000000
Si       1.35944937      -1.35760860      -1.35652582       0.00000000
Si       1.35226548       1.34775315       1.37942618       0.00000000
Si       0.13405041      -2.50473411       2.80590030       0.00000000
Si      -2.71293660      -0.00136836      -2.71471460       0.00000000
Si       0.00210141       2.71345788      -2.71481854       0.00000000
Si      -2.71658556       2.71321353       0.00398418       0.00000000
Si       2.71878471       2.71140534       0.00516211       0.00000000
Si       0.00232947      -2.71715571      -2.71454138       0.00000000
