10
Lattice="16.28999089631971 0.0 0.0 0.0 16.28999089631971 0.0 0.0 0.0 34.64500226677339" Properties=species:S:1:pos:R:3:initial_magmoms:R:1 pbc="T T T"
Si       1.84982724       1.40009292      -0.28207977       0.00000000
Si       0.41769189      -2.32854147      -0.21705106       0.00000000
Si      -0.84471795       0.47856762      -2.19590541       0.00000000
Si      -1.69288938       0.91927728       1.47362599       0.00000000
Si      -2.84135067       1.55690046      -1.69854148       0.00000000
Si      -2.27670669       2.89202886       0.16293554       0.00000000
Si       2.48191182       1.14101676      -2.51865843       0.00000000
Si      -1.72398699      -3.36013830      -0.30570767       0.00000000
Si      -3.65319540      -0.49612824       1.27950994       0.00000000
Si       1.60072056      -2.84695443      -2.22628909       0.00000000
