10
Lattice="16.28999089631971 0.0 0.0 0.0 16.28999089631971 0.0 0.0 0.0 34.64500226677339" Properties=species:S:1:pos:R:3:initial_magmoms:R:1 pbc="T T T"
Si      -0.56464398      -1.33512840      -1.86147701       0.00000000
Si      -2.06514846       0.82259613       0.84041893       0.00000000
Si       1.68291990       1.35772263      -1.07642082       0.00000000
Si       0.58381731      -1.97275158       1.31069046       0.00000000
Si       1.43198874      -2.41346124      -2.35884094       0.00000000
Si       2.27670669      -2.89202886      -0.16293554       0.00000000
Si      -3.69822096      -0.09159867      -0.65503342       0.00000000
Si      -1.37648871      -3.38815710       1.11657440       0.00000000
Si      -1.53556056      -0.04469976      -3.54699196       0.00000000
Si       3.78028998       0.79410492      -0.20904806       0.00000000
