10
Lattice="16.28999089631971 0.0 0.0 0.0 16.28999089631971 0.0 0.0 0.0 34.64500226677339" Properties=species:S:1:pos:R:3:initial_magmoms:R:1 pbc="T T T"
Si       1.17291258      -1.53106452       1.50002204       0.00000000
Si      -1.51656642       1.20469437       1.50946973       0.00000000
Si       1.90770561       0.92123208      -1.27720747       0.00000000
Si      -2.03211234      -0.83826711      -1.28015230       0.00000000
Si       2.53535931      -0.17040969       2.88696619       0.00000000
Si       2.62215243      -2.81745324       0.04571411       0.00000000
Si      -0.18306702       2.53928520       2.89202436       0.00000000
Si      -2.83796235       2.63764422       0.11291159       0.00000000
Si       2.76666102       2.71971324       0.11262750       0.00000000
Si       3.61224234      -0.95863392      -1.28576479       0.00000000
