10
Lattice="16.28999089631971 0.0 0.0 0.0 16.28999089631971 0.0 0.0 0.0 34.64500226677339" Properties=species:S:1:pos:R:3:initial_magmoms:R:1 pbc="T T T"
Si       0.80327619       1.78124131      -1.44248012       0.00000000
Si       1.78613334      -1.72129914      -0.23090907       0.00000000
Si      -1.87605414      -0.96558975      -1.41174999       0.00000000
Si       0.43056099       1.30963455       2.15225268       0.00000000
Si      -0.14936301      -2.36866374       2.20855084       0.00000000
Si       2.11333428       0.37427904      -2.90016941       0.00000000
Si      -1.69095087       2.62952270       1.88839619       0.00000000
Si       0.47012940      -0.60626493       3.67050146       0.00000000
Si      -0.62330427      -2.36916873      -2.89372543       0.00000000
Si       3.59277579      -0.76356117      -1.41223502       0.00000000
