10
Lattice="16.28999089631971 0.0 0.0 0.0 16.28999089631971 0.0 0.0 0.0 34.64500226677339" Properties=species:S:1:pos:R:3:initial_magmoms:R:1 pbc="T T T"
Si      -1.63851336      -0.72410679       1.50342071       0.00000000
Si      -0.87597846      -1.00730844      -1.95196981       0.00000000
Si       0.54112122       2.26811276      -0.59703766       0.00000000
Si       1.60314777      -1.23509151       1.33116567       0.00000000
Si      -1.33678998      -3.07411848       1.00664575       0.00000000
Si       2.80365561       2.03542803      -1.34221743       0.00000000
Si       1.93096773       0.19692981       3.23969062       0.00000000
Si      -1.72054980      -3.09711996      -1.36303909       0.00000000
Si       0.94967442      -1.70248419      -3.26771844       0.00000000
Si       3.38559957      -1.84083516      -0.06038627       0.00000000
