10
Lattice="16.28999089631971 0.0 0.0 0.0 16.28999089631971 0.0 0.0 0.0 34.64500226677339" Properties=species:S:1:pos:R:3:initial_magmoms:R:1 pbc="T T T"
Si      -1.49543829      -1.38939039       1.08504743       0.00000000
Si       2.04442758      -0.23829012       1.14941788       0.00000000
Si      -0.38375982      -0.02300148      -2.36968483       0.00000000
Si      -0.30172338       2.35001169       0.49677497       0.00000000
Si       2.93993775       1.83902697       0.32451992       0.00000000
Si       1.33678998       3.07411848      -1.00664575       0.00000000
Si       0.46081152       2.06681004      -2.95861556       0.00000000
Si      -3.08350152      -0.05079222       2.14262136       0.00000000
Si      -2.69917155      -0.01536147      -2.65363543       0.00000000
Si       2.85154821      -2.48114619       0.85597455       0.00000000
