10
Lattice="16.28999089631971 0.0 0.0 0.0 16.28999089631971 0.0 0.0 0.0 34.64500226677339" Properties=species:S:1:pos:R:3:initial_magmoms:R:1 pbc="T T T"
Si      -2.04442758       0.23829012      -1.14941788       0.00000000
Si       0.80712063      -2.24285607      -0.29344333       0.00000000
Si       0.89551017       2.07731709      -0.82489796       0.00000000
Si      -0.32138541       0.25132212       2.40620069       0.00000000
Si      -2.34615096       2.58830181      -0.65264292       0.00000000
Si      -3.53986587      -1.15110027      -0.06437045       0.00000000
Si       1.77598467      -0.31229559       3.27357345       0.00000000
Si      -0.57231657      -3.51986175       1.12378057       0.00000000
Si      -0.28199619       2.58615153       2.72708288       0.00000000
Si       2.67796197       1.47157344      -2.21644990       0.00000000
