10
Lattice="16.28999089631971 0.0 0.0 0.0 16.28999089631971 0.0 0.0 0.0 34.64500226677339" Properties=species:S:1:pos:R:3:initial_magmoms:R:1 pbc="T T T"
Si      -0.27382350      -1.18587942      -2.03511786       0.00000000
Si       0.15193194      -1.86831639       1.47975816       0.00000000
Si      -2.03491978       0.96767487       0.83279703       0.00000000
Si       2.13610933       1.00818810      -0.60247693       0.00000000
Si       3.43961884      -0.92791098      -0.90045876       0.00000000
Si       1.94189995      -1.98773838      -2.50545867       0.00000000
Si      -3.44134951      -1.01981916       1.06550764       0.00000000
Si      -1.98691315      -2.19945951       2.50466184       0.00000000
Si       1.92994309      -1.57060035       2.98778667       0.00000000
Si      -2.75466085       2.68811064      -0.63999748       0.00000000
