10
Lattice="16.28999089631971 0.0 0.0 0.0 16.28999089631971 0.0 0.0 0.0 34.64500226677339" Properties=species:S:1:pos:R:3:initial_magmoms:R:1 pbc="T T T"
Si       1.47347937      -0.71180784       1.77444872       0.00000000
Si      -2.05110648      -1.28270718      -0.06319252       0.00000000
Si      -1.08779733       2.16603243       0.18406900       0.00000000
Si       1.56452418      -0.11160279      -1.88347660       0.00000000
Si      -2.57447160       2.09114730      -1.68925661       0.00000000
Si       3.66955056      -0.74935629       0.79046081       0.00000000
Si      -3.39239250      -0.26958321      -1.79714121       0.00000000
Si       1.24207992       0.83533491       3.56843723       0.00000000
Si       3.15973872      -1.84762809      -1.30566693       0.00000000
Si       0.50565789       3.89712186      -0.12288589       0.00000000
