10
Lattice="16.28999089631971 0.0 0.0 0.0 16.28999089631971 0.0 0.0 0.0 34.64500226677339" Properties=species:S:1:pos:R:3:initial_magmoms:R:1 pbc="T T T"
Si      -0.21035277      -2.19760964       0.71299455       0.00000000
Si       0.41852268       0.17886420      -2.33829644       0.00000000
Si      -2.21572345       0.80185896       0.47034081       0.00000000
Si       1.49771889       1.05982740       1.60499992       0.00000000
Si       0.19420938       2.99592648       1.90298175       0.00000000
Si      -1.34791605      -1.88287055       2.80520740       0.00000000
Si       2.59020774       1.08747153      -2.43273877       0.00000000
Si      -1.94189995       1.98773838       2.50545867       0.00000000
Si       1.93012065      -2.97299735       1.21853470       0.00000000
Si      -2.73548685       2.18121471      -1.37571916       0.00000000
