10
Lattice="16.28999089631971 0.0 0.0 0.0 16.28999089631971 0.0 0.0 0.0 34.64500226677339" Properties=species:S:1:pos:R:3:initial_magmoms:R:1 pbc="T T T"
Si      -1.35610992      -1.35624024      -1.35770375       0.00000000
Si      -1.35668007       1.35723393       1.35711479       0.00000000
Si       1.35769005      -1.35785295       1.35711479       0.00000000
Si       1.35925389       1.35788553      -1.35676834       0.00000000
Si      -2.71404432       2.71419093      -0.00079684       0.00000000
Si      -2.71427238       0.00143352       2.71419493       0.00000000
Si       0.00229689      -2.71562608       2.71440280       0.00000000
Si       2.71515204       2.71489140      -0.00024252       0.00000000
Si      -2.71489140      -2.71525955      -0.00006929       0.00000000
Si      -2.71557558       0.00167787      -2.71488783       0.00000000
