10
Lattice="16.28999089631971 0.0 0.0 0.0 16.28999089631971 0.0 0.0 0.0 34.64500226677339" Properties=species:S:1:pos:R:3:initial_magmoms:R:1 pbc="T T T"
Si       1.35425286       1.35529542      -1.35642189       0.00000000
Si       1.34866539      -1.35884664       1.35895097       0.00000000
Si      -1.36042677      -1.35946566      -1.35666440       0.00000000
Si      -1.36041048       1.35303111       1.36335089       0.00000000
Si       2.71140534      -0.00180819      -2.71402170       0.00000000
Si      -0.00327429       2.71292031      -2.71426422       0.00000000
Si       2.71334385      -2.71467963       0.00065826       0.00000000
Si       2.71432125       2.71559187       0.00065826       0.00000000
Si      -0.00374670      -2.71669959      -2.71377919       0.00000000
Si      -2.71779102      -0.00250866      -2.71457602       0.00000000
