10
Lattice="16.28999089631971 0.0 0.0 0.0 16.28999089631971 0.0 0.0 0.0 34.64500226677339" Properties=species:S:1:pos:R:3:initial_magmoms:R:1 pbc="T T T"
Si       1.64167362      -0.98272683       1.36882480       0.00000000
Si      -0.95519673      -1.81027512      -1.18614161       0.00000000
Si       1.88162532       1.07854461      -1.08023177       0.00000000
Si      -1.51809768       1.90853640       0.19997106       0.00000000
Si       0.40166253       2.20275009      -2.60232615       0.00000000
Si      -2.34440793      -0.52629732      -2.60260331       0.00000000
Si      -0.93457359      -0.20492820       3.52194361       0.00000000
Si       0.47245887      -2.05905600       3.09019735       0.00000000
Si      -0.28386954       3.25977561       1.91995781       0.00000000
Si       2.35986714       0.70161030       2.89913005       0.00000000
