10
Lattice="16.28999089631971 0.0 0.0 0.0 16.28999089631971 0.0 0.0 0.0 34.64500226677339" Properties=species:S:1:pos:R:3:initial_magmoms:R:1 pbc="T T T"
Si       1.10320767       1.47080781      -1.46881034       0.00000000
Si      -0.69175485       0.37752075       2.22552690       0.00000000
Si       1.64959056      -1.70570961      -0.09038886       0.00000000
Si      -2.34616725      -0.25699104      -0.96081038       0.00000000
Si      -1.10609100      -1.55036817      -2.70414787       0.00000000
Si       0.61805889      -0.01049076      -3.29079202       0.00000000
Si       3.15882648      -0.56102760       1.43336848       0.00000000
Si      -2.28521007      -1.35356868       2.53248179       0.00000000
Si       0.36711144      -3.63120390       0.46493619       0.00000000
Si      -1.40401881       2.63440251       2.24011245       0.00000000
