10
Lattice="16.28999089631971 0.0 0.0 0.0 16.28999089631971 0.0 0.0 0.0 34.64500226677339" Properties=species:S:1:pos:R:3:initial_magmoms:R:1 pbc="T T T"
Si       0.69175485      -0.37752075      -2.22552690       0.00000000
Si      -0.71226396       2.25688176       0.01458555       0.00000000
Si      -1.59345522      -1.73108943       0.30695489       0.00000000
Si       1.50798159       0.32597919       1.82173917       0.00000000
Si      -1.34434854       2.51595792       2.25116422       0.00000000
Si      -1.65441240      -0.63451179      -3.18633728       0.00000000
Si       3.44702916       0.95876424       0.73890902       0.00000000
Si      -2.77648389      -1.21267647       2.31619292       0.00000000
Si       0.75851127       2.15060580       3.13582484       0.00000000
Si       2.34134541      -2.08323036      -2.31591576       0.00000000
