10
Lattice="16.28999089631971 0.0 0.0 0.0 16.28999089631971 0.0 0.0 0.0 34.64500226677339" Properties=species:S:1:pos:R:3:initial_magmoms:R:1 pbc="T T T"
Si      -1.43767395      -1.77376923      -0.34832105       0.00000000
Si       1.50340410       1.36094805      -1.11990032       0.00000000
Si      -0.99753444       2.06277012       0.96860551       0.00000000
Si       1.83275532      -1.59594759       0.78221530       0.00000000
Si       0.75719178      -1.13134050       3.04799971       0.00000000
Si      -1.14043032       0.70323930       3.07124652       0.00000000
Si       3.30799401      -0.10738368      -0.67724088       0.00000000
Si      -0.57938643      -2.37128643      -2.45806428       0.00000000
Si       0.66573972       3.44180007      -0.36259480       0.00000000
Si      -3.81625830      -1.37060802      -0.19910494       0.00000000
