10
Lattice="16.28999089631971 0.0 0.0 0.0 16.28999089631971 0.0 0.0 0.0 34.64500226677339" Properties=species:S:1:pos:R:3:initial_magmoms:R:1 pbc="T T T"
Si       1.34128602       1.33749045       1.37275355       0.00000000
Si      -1.37608146      -1.37780820       1.37358503       0.00000000
Si       1.46618145      -1.28265831      -1.38390578       0.00000000
Si      -1.28301669       1.40644602      -1.47064652       0.00000000
Si      -2.00464740      -0.40083174      -2.90744629       0.00000000
Si      -0.10702530      -2.23541154      -2.93069310       0.00000000
Si       2.71265967       2.70014895      -0.03787047       0.00000000
Si      -2.73225654       2.69283474      -0.01633859       0.00000000
Si      -0.01169622       2.69772174       2.73458006       0.00000000
Si       2.70233181      -0.01751175       2.73503045       0.00000000
