10
Lattice="16.28999089631971 0.0 0.0 0.0 16.28999089631971 0.0 0.0 0.0 34.64500226677339" Properties=species:S:1:pos:R:3:initial_magmoms:R:1 pbc="T T T"
Si       1.35501849       1.35475785      -1.35728801       0.00000000
Si       1.35094599      -1.35998694       1.35947065       0.00000000
Si      -1.36006839      -1.36029645      -1.35708014       0.00000000
Si      -1.36521603       1.35705474       1.35697621       0.00000000
Si       2.71223613       2.71261080       0.00024252       0.00000000
Si      -0.00314397       2.71285515      -2.71447209       0.00000000
Si       2.71277370      -0.00299736      -2.71481854       0.00000000
Si      -2.71516833       2.71259451      -0.00031181       0.00000000
Si       2.71373481      -2.71544526       0.00169761       0.00000000
Si      -2.71432125      -2.71559187      -0.00065826       0.00000000
