10
Lattice="16.28999089631971 0.0 0.0 0.0 16.28999089631971 0.0 0.0 0.0 34.64500226677339" Properties=species:S:1:pos:R:3:initial_magmoms:R:1 pbc="T T T"
Si      -1.94719257       0.61455654      -1.09447088       0.00000000
Si      -0.63208458       0.25907616       2.23657866       0.00000000
Si       1.58263866       1.68366924      -0.39297848       0.00000000
Si       0.71226396      -2.25688176      -0.01458555       0.00000000
Si      -3.32662977      -0.66244914       0.32275302       0.00000000
Si       1.47077523      -0.10627596       3.12123929       0.00000000
Si       2.22024555      -1.93090257       1.80715362       0.00000000
Si       0.84800853       3.31612272       1.20114290       0.00000000
Si      -0.97832853       2.54511702       2.47254590       0.00000000
Si      -2.48191182      -1.14101676       2.51865843       0.00000000
