10
Lattice="16.28999089631971 0.0 0.0 0.0 16.28999089631971 0.0 0.0 0.0 34.64500226677339" Properties=species:S:1:pos:R:3:initial_magmoms:R:1 pbc="T T T"
Si      -2.10285981       0.36535212      -0.88466063       0.00000000
Si      -0.34376787      -0.97761177       2.09366795       0.00000000
Si       0.74947032      -1.82462661      -1.31408567       0.00000000
Si       0.79918740       2.34000963      -0.33183002       0.00000000
Si      -1.18143225       1.10324025       2.85097347       0.00000000
Si      -1.47077523       0.10627596      -3.12123929       0.00000000
Si      -2.44910376       2.65139298      -0.64869338       0.00000000
Si       1.51361793      -3.41363466       0.30785566       0.00000000
Si       2.68851789      -1.19184156      -2.39691582       0.00000000
Si       1.46082204      -2.44594350       2.53632739       0.00000000
