10
Lattice="16.28999089631971 0.0 0.0 0.0 16.28999089631971 0.0 0.0 0.0 34.64500226677339" Properties=species:S:1:pos:R:3:initial_magmoms:R:1 pbc="T T T"
Si       1.35811359      -1.35576783       1.36397450       0.00000000
Si      -1.35752715       1.35915615       1.36314302       0.00000000
Si       1.36513458       1.36969578      -1.35956073       0.00000000
Si      -1.36244673      -1.36065483      -1.38694415       0.00000000
Si       2.71161711       2.71321353       0.00485030       0.00000000
Si       2.71109583      -2.71599912       0.00214799       0.00000000
Si      -2.71842633       2.70969489       0.00505817       0.00000000
Si      -2.71738377      -2.71474479      -0.00041574       0.00000000
Si       2.71301805       0.00053757       2.72060426       0.00000000
Si      -0.00114030       2.71433754       2.72036174       0.00000000
