10
Lattice="16.28999089631971 0.0 0.0 0.0 16.28999089631971 0.0 0.0 0.0 34.64500226677339" Properties=species:S:1:pos:R:3:initial_magmoms:R:1 pbc="T T T"
Si       2.21581467       0.48026178       0.67038117       0.00000000
Si      -1.07688303       1.83738168       1.07815307       0.00000000
Si      -0.39157902       0.64980810      -2.33154067       0.00000000
Si      -0.02969667      -1.94598385       1.51028043       0.00000000
Si      -0.92607021      -0.38327112       3.00105402       0.00000000
Si      -1.93724264      -2.64537057      -1.14016766       0.00000000
Si      -2.80058820       1.13588541      -2.04138861       0.00000000
Si       1.45521828       2.24415927      -2.53826751       0.00000000
Si       3.45763395      -0.96648570      -0.89193608       0.00000000
Si       2.78575290       2.37205206      -0.54843069       0.00000000
