10
Lattice="16.28999089631971 0.0 0.0 0.0 16.28999089631971 0.0 0.0 0.0 34.64500226677339" Properties=species:S:1:pos:R:3:initial_magmoms:R:1 pbc="T T T"
Si       0.46037169      -0.14447601       2.29307919       0.00000000
Si      -0.58477842       1.86763940      -1.34027731       0.00000000
Si      -2.27366046      -1.23704631       0.32711829       0.00000000
Si       2.34968589      -0.10176363      -1.21084351       0.00000000
Si       2.26776348      -1.97674263       2.07402422       0.00000000
Si      -1.55896929       0.93761397      -3.36139858       0.00000000
Si      -1.36433637      -1.09216305       3.48360685       0.00000000
Si       1.25333631       3.37580018      -1.61826896       0.00000000
Si      -2.38607775       3.13760780      -0.30134240       0.00000000
Si      -2.71974582      -2.39765994      -1.64241654       0.00000000
