10
Lattice="16.28999089631971 0.0 0.0 0.0 16.28999089631971 0.0 0.0 0.0 34.64500226677339" Properties=species:S:1:pos:R:3:initial_magmoms:R:1 pbc="T T T"
Si       1.35697329       1.34418564      -1.36826009       0.00000000
Si      -1.33307586      -1.35951453      -1.38118268       0.00000000
Si      -1.35545832       1.35821133       1.36075251       0.00000000
Si       1.35923760      -1.35734796       1.36109896       0.00000000
Si       0.28009026      -2.55264626      -2.77878018       0.00000000
Si      -2.55365298       0.11401371      -2.80931630       0.00000000
Si       2.71210581      -2.71392214       0.00474637       0.00000000
Si      -2.71471221       0.00032580       2.71752085       0.00000000
Si       0.00043983       2.71521720       2.71727834       0.00000000
Si       0.00105885      -2.71523186       2.71738227       0.00000000
