10
Lattice="16.28999089631971 0.0 0.0 0.0 16.28999089631971 0.0 0.0 0.0 34.64500226677339" Properties=species:S:1:pos:R:3:initial_magmoms:R:1 pbc="T T T"
Si      -1.35488817      -1.35540964       1.35784233       0.00000000
Si       1.35738054      -1.35731557      -1.35652582       0.00000000
Si      -1.35720135       1.35732400      -1.35697621       0.00000000
Si       1.36019871       1.35897581       1.35714943       0.00000000
Si       0.00076563      -2.71169875      -2.71412564       0.00000000
Si      -2.71251306      -0.00006535      -2.71450673       0.00000000
Si       0.00097740       2.71520790      -2.71325951       0.00000000
Si       2.71512605       2.71483323       0.00006929       0.00000000
Si      -2.71507059      -2.71492417       0.00045039       0.00000000
Si       2.71369379      -0.00080109       2.71637757       0.00000000
