10
Lattice="16.28999089631971 0.0 0.0 0.0 16.28999089631971 0.0 0.0 0.0 34.64500226677339" Properties=species:S:1:pos:R:3:initial_magmoms:R:1 pbc="T T T"
Si      -1.36505313      -1.33839292       1.37329401       0.00000000
Si       1.36075257      -1.35442390      -1.36196509       0.00000000
Si      -1.35532800       1.36150191      -1.36151470       0.00000000
Si       1.37215557       1.36304946       1.36827048       0.00000000
Si       0.02104668      -2.66844503       2.74551403       0.00000000
Si       2.71424765      -2.71420080      -0.00273696       0.00000000
Si       2.71477769       2.71699281      -0.00239051       0.00000000
Si       0.00055386      -2.71339971      -2.71911452       0.00000000
Si      -2.72044629      -2.71291121      -0.00318734       0.00000000
Si      -2.71472850       0.00162900      -2.71883736       0.00000000
