10
Lattice="16.28999089631971 0.0 0.0 0.0 16.28999089631971 0.0 0.0 0.0 34.64500226677339" Properties=species:S:1:pos:R:3:initial_magmoms:R:1 pbc="T T T"
Si      -0.16565301      -0.01050705      -2.31705905       0.00000000
Si      -1.99241361       0.85744044       1.00893232       0.00000000
Si       1.29828042       1.94197977       0.63292990       0.00000000
Si      -0.11460015      -2.45696273       0.47934852       0.00000000
Si      -1.13003730       0.93476907       3.23906701       0.00000000
Si      -3.55946274      -0.88436618       0.71493467       0.00000000
Si      -2.15254431      -2.58441569       1.68832119       0.00000000
Si       1.04998824       3.37999581      -1.29575845       0.00000000
Si      -1.55996298      -1.85168919      -2.97129563       0.00000000
Si       1.85593599       0.15921846      -3.37220783       0.00000000
