10
Lattice="16.28999089631971 0.0 0.0 0.0 16.28999089631971 0.0 0.0 0.0 34.64500226677339" Properties=species:S:1:pos:R:3:initial_magmoms:R:1 pbc="T T T"
Si       1.58645119       1.78757989      -0.04472672       0.00000000
Si       0.44592022      -1.82222613       1.56675181       0.00000000
Si       0.59795672      -1.30180950      -1.98422432       0.00000000
Si      -2.09088666       0.85536835       0.95977103       0.00000000
Si      -1.27824372      -2.64796623      -1.64574246       0.00000000
Si       2.45425859      -0.89714961       2.29013986       0.00000000
Si      -2.67066405      -0.80033814      -2.37775712       0.00000000
Si       2.29942214      -2.71928385      -1.09672280       0.00000000
Si      -2.27023956      -2.92603653       0.51828952       0.00000000
Si       3.59182187      -1.21188870       0.19792701       0.00000000
