10
Lattice="16.28999089631971 0.0 0.0 0.0 16.28999089631971 0.0 0.0 0.0 34.64500226677339" Properties=species:S:1:pos:R:3:initial_magmoms:R:1 pbc="T T T"
Si      -1.35697329      -1.34418564       1.36826009       0.00000000
Si      -1.23378831       1.46460132      -1.38936930       0.00000000
Si       1.36133901       1.37169945       1.36583494       0.00000000
Si       1.48178727      -1.25721333      -1.41595589       0.00000000
Si       0.51429159       2.25137574      -2.84237254       0.00000000
Si       2.30299875       0.47076471      -2.82137766       0.00000000
Si      -2.69004915      -2.70370017      -0.01292259       0.00000000
Si       2.71716839      -2.68320735       0.02301469       0.00000000
Si       0.00226431      -2.70153360       2.72935906       0.00000000
Si      -2.71243161       0.01402569       2.72901261       0.00000000
