10
Lattice="16.28999089631971 0.0 0.0 0.0 16.28999089631971 0.0 0.0 0.0 34.64500226677339" Properties=species:S:1:pos:R:3:initial_magmoms:R:1 pbc="T T T"
Si      -1.34589609      -1.33788141       1.38122772       0.00000000
Si      -1.35094599       1.35998694      -1.35947065       0.00000000
Si       1.36278882      -1.35545832      -1.35777304       0.00000000
Si       1.36101321       1.35969372       1.36130683       0.00000000
Si       0.16715169      -2.55798612       2.73768425       0.00000000
Si      -2.71101438      -0.00030951      -2.71655079       0.00000000
Si      -2.71660185      -2.71445157      -0.00117793       0.00000000
Si       0.00407250       2.71474479      -2.71675866       0.00000000
Si       0.00410508      -2.71515204      -2.71672402       0.00000000
Si       2.71818230      -2.71479366      -0.00034645       0.00000000
