10
Lattice="16.28999089631971 0.0 0.0 0.0 16.28999089631971 0.0 0.0 0.0 34.64500226677339" Properties=species:S:1:pos:R:3:initial_magmoms:R:1 pbc="T T T"
Si      -0.73383192       1.12435209      -1.93613703       0.00000000
Si      -1.44984258      -1.86461856      -0.05182895       0.00000000
Si       2.22693164      -0.66168351       0.44657433       0.00000000
Si      -0.54406971       0.81034605       2.20737291       0.00000000
Si       2.22781130      -0.12597057      -2.31653937       0.00000000
Si      -3.37892067      -0.68913216       0.72726829       0.00000000
Si       3.40266239       1.34869797       0.42706918       0.00000000
Si       2.11838648      -1.62608409       2.60693394       0.00000000
Si      -0.61807518      -0.61286238      -3.67694544       0.00000000
Si      -2.77104303       2.12261958      -1.51256700       0.00000000
