10
Lattice="16.28999089631971 0.0 0.0 0.0 16.28999089631971 0.0 0.0 0.0 34.64500226677339" Properties=species:S:1:pos:R:3:initial_magmoms:R:1 pbc="T T T"
Si       1.44943533      -1.23717663       1.33757500       0.00000000
Si       1.36834371       1.33612209      -1.37000274       0.00000000
Si      -1.35190710      -1.37536470      -1.37194286       0.00000000
Si      -1.21049361       1.57721409       1.48935483       0.00000000
Si      -0.11588706      -2.06705439       2.90210953       0.00000000
Si      -2.68411959      -2.71928970       0.00388024       0.00000000
Si      -2.68993512       2.71505430       0.00142045       0.00000000
Si       0.01332522       2.69698869      -2.72867655       0.00000000
Si      -2.70185940      -0.01982493      -2.72923087       0.00000000
Si       2.74234005       2.69438229       0.00997777       0.00000000
