10
Lattice="16.28999089631971 0.0 0.0 0.0 16.28999089631971 0.0 0.0 0.0 34.64500226677339" Properties=species:S:1:pos:R:3:initial_magmoms:R:1 pbc="T T T"
Si       0.41951637       0.62433054       2.24191399       0.00000000
Si       1.99943460      -0.00342090      -1.28858693       0.00000000
Si      -1.57115421       1.22744728      -1.30500867       0.00000000
Si      -0.68888781      -2.22011523       0.56648075       0.00000000
Si      -1.92753054      -0.20893554      -3.18661444       0.00000000
Si       0.87614136      -3.01211874       2.18966930       0.00000000
Si       1.31867550       2.81535902       2.26079553       0.00000000
Si       1.52360370      -1.27628892      -3.29903754       0.00000000
Si       2.68677486       2.23807400      -1.63548754       0.00000000
Si      -3.48913881       1.66370814       0.09135892       0.00000000
