10
Lattice="16.28999089631971 0.0 0.0 0.0 16.28999089631971 0.0 0.0 0.0 34.64500226677339" Properties=species:S:1:pos:R:3:initial_magmoms:R:1 pbc="T T T"
Si       0.87692328       1.91304873       1.11816807       0.00000000
Si      -1.56502917       0.79200351      -1.62318855       0.00000000
Si       1.85034852      -1.28282121      -0.96853622       0.00000000
Si      -1.64216232      -1.25270100       1.40021319       0.00000000
Si       3.47196330      -0.57531393       0.69868615       0.00000000
Si      -0.45662499       3.63644928       0.05224469       0.00000000
Si      -1.24999686      -0.72306423      -3.37366292       0.00000000
Si      -3.23061651      -1.95983361      -0.19085942       0.00000000
Si      -0.53854740       1.76147028       3.33711242       0.00000000
Si      -0.87614136       3.01211874      -2.18966930       0.00000000
