10
Lattice="16.28999089631971 0.0 0.0 0.0 16.28999089631971 0.0 0.0 0.0 34.64500226677339" Properties=species:S:1:pos:R:3:initial_magmoms:R:1 pbc="T T T"
Si       2.21068821      -0.23076414       0.72785726       0.00000000
Si      -0.99546561      -2.10821922      -0.39668550       0.00000000
Si       0.10854516       0.96440058      -2.16035961       0.00000000
Si      -1.39773901       1.36699164       1.36393986       0.00000000
Si      -2.66245619       2.43643014      -0.39956103       0.00000000
Si       0.30977553      -2.80249902      -2.30742773       0.00000000
Si       1.93423062      -1.29350745       2.88201541       0.00000000
Si      -2.11838648       1.62608409      -2.60693394       0.00000000
Si      -3.31993688      -1.67655051      -0.73007454       0.00000000
Si      -0.47570221      -3.48757497       1.44937448       0.00000000
