10
Lattice="16.28999089631971 0.0 0.0 0.0 16.28999089631971 0.0 0.0 0.0 34.64500226677339" Properties=species:S:1:pos:R:3:initial_magmoms:R:1 pbc="T T T"
Si       1.17573075       2.01038148      -0.01950515       0.00000000
Si      -2.22693164       0.66168351      -0.44657433       0.00000000
Si      -0.10854516      -0.96440058       2.16035961       0.00000000
Si       0.92576070      -1.85463279      -1.45737748       0.00000000
Si       0.00087966       0.53571294      -2.76311370       0.00000000
Si      -2.77100135       1.47202956       1.76079858       0.00000000
Si      -1.10401077      -3.07261980       1.76367412       0.00000000
Si       2.10214305      -1.19516472       2.88821687       0.00000000
Si       0.20123037      -3.76689960      -0.14706812       0.00000000
Si      -1.50628417       0.40259106       3.52429947       0.00000000
