10
Lattice="16.28999089631971 0.0 0.0 0.0 16.28999089631971 0.0 0.0 0.0 34.64500226677339" Properties=species:S:1:pos:R:3:initial_magmoms:R:1 pbc="T T T"
Si       1.35321030      -1.35681039       1.35763446       0.00000000
Si       1.35531171       1.35664749      -1.35718408       0.00000000
Si      -1.35972630      -1.35817875      -1.35708014       0.00000000
Si      -1.36337526       1.35640314       1.36161864       0.00000000
Si       2.71265967      -2.71441899       0.00110864       0.00000000
Si       2.71287144      -0.00068418      -2.71467996       0.00000000
Si      -0.00182448       2.71376739      -2.71433351       0.00000000
Si       2.71244790       2.71720458       0.00017323       0.00000000
Si      -0.00288333      -2.71546155      -2.71461067       0.00000000
Si      -2.71638031      -2.71414206       0.00145509       0.00000000
