10
Lattice="16.28999089631971 0.0 0.0 0.0 16.28999089631971 0.0 0.0 0.0 34.64500226677339" Properties=species:S:1:pos:R:3:initial_magmoms:R:1 pbc="T T T"
Si      -1.48875061       1.18146483      -1.38684022       0.00000000
Si      -1.25195917      -1.38727269       1.48308409       0.00000000
Si       1.23720563      -1.53865566      -1.36213832       0.00000000
Si       1.25014803       1.43879796       1.48419273       0.00000000
Si       1.59392730      -0.90038088       2.84349015       0.00000000
Si      -1.36771591       0.34994178       3.22389249       0.00000000
Si      -0.52625596       2.53019538       2.63156655       0.00000000
Si      -0.13297887       2.53843812      -2.74922105       0.00000000
Si       2.65132749       2.67371028       0.03824810       0.00000000
Si       2.58349593      -0.18427248      -2.74679589       0.00000000
