10
Lattice="16.28999089631971 0.0 0.0 0.0 16.28999089631971 0.0 0.0 0.0 34.64500226677339" Properties=species:S:1:pos:R:3:initial_magmoms:R:1 pbc="T T T"
Si       1.40117946       1.23491232      -1.44594462       0.00000000
Si      -1.77640399       1.09139742       1.14737383       0.00000000
Si      -1.25014803      -1.43879796      -1.48419273       0.00000000
Si       0.34377927      -2.33917884       1.35929742       0.00000000
Si      -2.61786394      -1.08885618       1.73969976       0.00000000
Si       2.42660238      -2.49836472       0.17700142       0.00000000
Si       2.36732307       1.78797411       2.01769141       0.00000000
Si       3.49304352      -0.55268712       1.06692809       0.00000000
Si       2.36357637       2.93637024      -0.08103471       0.00000000
Si      -0.02518597       2.45682522      -2.86507400       0.00000000
