10
Lattice="16.28999089631971 0.0 0.0 0.0 16.28999089631971 0.0 0.0 0.0 34.64500226677339" Properties=species:S:1:pos:R:3:initial_magmoms:R:1 pbc="T T T"
Si       0.72669201       1.68135606       1.54855074       0.00000000
Si       1.69646504      -1.86509097       0.13092354       0.00000000
Si      -1.88670684      -1.08082521       1.36540677       0.00000000
Si       0.39388731       1.32181947      -2.44056855       0.00000000
Si       2.01074801       0.30864663       3.02660784       0.00000000
Si       2.52057614       2.70010008       0.41149039       0.00000000
Si       3.36418637      -0.91908180       1.54861311       0.00000000
Si      -0.68931039      -2.41269561       3.00454935       0.00000000
Si       0.70122586      -3.62149506       1.47723050       0.00000000
Si      -2.89595379      -2.89631313       0.17426446       0.00000000
