10
Lattice="16.28999089631971 0.0 0.0 0.0 16.28999089631971 0.0 0.0 0.0 34.64500226677339" Properties=species:S:1:pos:R:3:initial_magmoms:R:1 pbc="T T T"
Si       1.35558538       1.35562122      -1.36539495       0.00000000
Si       1.42636543      -1.22191290       1.41912938       0.00000000
Si      -1.35794093      -1.35718506      -1.36833977       0.00000000
Si      -1.17016609       1.45038015       1.48000068       0.00000000
Si       2.38876234       0.47954502       2.78403929       0.00000000
Si       0.02518597      -2.45682522       2.86507400       0.00000000
Si       0.77857729       2.39705721       2.87196836       0.00000000
Si      -2.69664075       2.71293660       0.01216040       0.00000000
Si       2.71998691      -2.69957880       0.00571643       0.00000000
Si      -2.71371267      -2.71415835      -0.00595894       0.00000000
