10
Lattice="16.28999089631971 0.0 0.0 0.0 16.28999089631971 0.0 0.0 0.0 34.64500226677339" Properties=species:S:1:pos:R:3:initial_magmoms:R:1 pbc="T T T"
Si      -1.87620044      -1.34615673       0.33848186       0.00000000
Si       1.70146541      -1.41747435       0.88750152       0.00000000
Si      -0.59795672       1.30180950       1.98422432       0.00000000
Si       0.28151498       0.35085402      -2.40741326       0.00000000
Si      -3.26862077       0.50147136      -0.39353280       0.00000000
Si      -0.15203650      -0.52041663       3.55097614       0.00000000
Si       2.99386514       0.08992080       2.18215133       0.00000000
Si       0.98849447       3.08938940       1.93949760       0.00000000
Si       0.72195260      -2.54558943       2.72247509       0.00000000
Si      -1.41050192      -3.40799832      -0.93073851       0.00000000
