10
Lattice="10.86 0.0 0.0 0.0 10.86 0.0 0.0 0.0 10.86" Properties=species:S:1:pos:R:3:initial_magmoms:R:1 pbc="T T T"
Si       1.47884964       1.20830532       1.11606048       0.00000000
Si      -1.23615036      -1.50669468       1.11606048       0.00000000
Si       1.20320112      -1.23582456      -1.54421598       0.00000000
Si      -1.23615036       1.20830532      -1.59893952       0.00000000
Si       0.12134964       2.56580532       2.47356048       0.00000000
Si      -2.59365036      -0.14919468       2.47356048       0.00000000
Si      -2.59365036       2.56580532      -0.24143952       0.00000000
Si       2.83634964      -0.14919468       2.47356048       0.00000000
Si       0.12134964      -2.86419468       2.47356048       0.00000000
Si       0.02443500       2.57350506      -2.82691230       0.00000000
