10
Lattice="10.86 0.0 0.0 0.0 10.86 0.0 0.0 0.0 10.86" Properties=species:S:1:pos:R:3:initial_magmoms:R:1 pbc="T T T"
Si       1.32254166      -1.23275118      -1.30041984       0.00000000
Si      -1.26058536      -1.36519974       1.22797278       0.00000000
Si       1.45441464       1.34980026       1.22797278       0.00000000
Si      -1.26058536       1.34980026      -1.48702722       0.00000000
Si      -2.61808536      -0.00769974       2.58547278       0.00000000
Si       0.09691464       2.70730026       2.58547278       0.00000000
Si      -2.61808536       2.70730026      -0.12952722       0.00000000
Si      -2.61808536      -2.72269974      -0.12952722       0.00000000
Si       0.03659820      -2.69995890      -2.69156412       0.00000000
Si      -0.02443500      -2.57350506       2.82691230       0.00000000
