10
Lattice="16.28999089631971 0.0 0.0 0.0 16.28999089631971 0.0 0.0 0.0 34.5300574570662" Properties=species:S:1:pos:R:3:initial_magmoms:R:1 pbc="T T T"
Si       1.31496301      -1.29883006       1.49066687       0.00000000
Si       1.85575843       1.15770912      -1.01259450       0.00000000
Si      -0.78574815      -1.88426008      -1.39537909       0.00000000
Si      -1.40899282       1.43126709       1.44960370       0.00000000
Si       3.23672689      -0.87688255      -1.28250027       0.00000000
Si      -2.65563394      -2.63348605       0.00864633       0.00000000
Si       2.54702458      -2.74258018       0.08540669       0.00000000
Si      -0.04473397      -2.65034620       2.84858976       0.00000000
Si       2.66273245       0.06824044       2.85204277       0.00000000
Si       0.78816070      -3.63243772      -1.19441421       0.00000000
