10
Lattice="16.28999089631971 0.0 0.0 0.0 16.28999089631971 0.0 0.0 0.0 34.5300574570662" Properties=species:S:1:pos:R:3:initial_magmoms:R:1 pbc="T T T"
Si      -0.15014004      -2.32213950      -0.00093231       0.00000000
Si      -2.23432567       0.66399669       0.18366548       0.00000000
Si       1.26395902       0.93041964       1.79546040       0.00000000
Si       0.71444845       0.32900913      -2.26054600       0.00000000
Si       2.90138095       0.97177995      -1.87570830       0.00000000
Si       1.59252832       3.13389693       1.02771867       0.00000000
Si      -0.36519899      -2.87440308      -2.32736170       0.00000000
Si      -3.37086268      -0.24472467      -1.67702224       0.00000000
Si      -0.04729639       0.54431406       3.75114036       0.00000000
Si      -2.38632766       3.01439512       0.13553055       0.00000000
