10
Lattice="16.28999089631971 0.0 0.0 0.0 16.28999089631971 0.0 0.0 0.0 34.5300574570662" Properties=species:S:1:pos:R:3:initial_magmoms:R:1 pbc="T T T"
Si       0.78685587       1.73115037      -1.48686511       0.00000000
Si       1.69191198      -1.67700663      -0.48414621       0.00000000
Si      -2.42293876      -0.33329340      -0.28435518       0.00000000
Si       0.71226396       0.79381563       2.26897134       0.00000000
Si      -1.73630223      -1.96173954       2.35705740       0.00000000
Si       2.75043618       0.82558113      -2.34410879       0.00000000
Si       1.67969448       3.32562698       0.17030234       0.00000000
Si       0.02256165      -1.07188200       3.63687830       0.00000000
Si       3.80272131      -0.27350910      -0.53725346       0.00000000
Si      -0.66870450       2.82840731       2.53887711       0.00000000
