10
Lattice="16.28999089631971 0.0 0.0 0.0 16.28999089631971 0.0 0.0 0.0 34.5300574570662" Properties=species:S:1:pos:R:3:initial_magmoms:R:1 pbc="T T T"
Si      -1.38334680       0.43300449      -1.79939683       0.00000000
Si       0.27416070       1.69464870       1.56856327       0.00000000
Si       1.95853041      -1.26426853      -0.06073841       0.00000000
Si      -1.26618912      -1.68253220       1.00544677       0.00000000
Si      -1.80985158      -1.77077187      -2.48402466       0.00000000
Si       3.13722594      -0.09110997       1.68572382       0.00000000
Si       1.64652804       3.26093220       0.49778559       0.00000000
Si       1.68352263       0.90880281       3.22559259       0.00000000
Si      -1.74443094      -3.27524201      -0.63866830       0.00000000
Si      -3.26645451       1.63292589      -0.93790594       0.00000000
