10
Lattice="16.28999089631971 0.0 0.0 0.0 16.28999089631971 0.0 0.0 0.0 34.5300574570662" Properties=species:S:1:pos:R:3:initial_magmoms:R:1 pbc="T T T"
Si       1.12446612      -1.57001391       1.32886238       0.00000000
Si      -1.60617771       1.15391844       1.30531632       0.00000000
Si      -1.06326459      -1.82500128      -1.17866345       0.00000000
Si       0.65998935       2.05008021      -1.78734380       0.00000000
Si      -0.59004009      -0.08490348      -2.80042172       0.00000000
Si       2.39212134       2.42629776      -0.06207472       0.00000000
Si       2.46514941      -0.20484675       2.68852904       0.00000000
Si      -0.25601364       2.51491536       2.68334953       0.00000000
Si       2.28319011      -3.00962311      -0.17253989       0.00000000
Si      -2.89617955       2.54902662      -0.12833794       0.00000000
