10
Lattice="16.28999089631971 0.0 0.0 0.0 16.28999089631971 0.0 0.0 0.0 34.5300574570662" Properties=species:S:1:pos:R:3:initial_magmoms:R:1 pbc="T T T"
Si      -1.35597960      -1.35490446      -1.35817151       0.00000000
Si       1.36122498      -1.35303111       1.35765356       0.00000000
Si      -1.35601218       1.36199061       1.35623782       0.00000000
Si       1.35853713       1.35990549      -1.35799886       0.00000000
Si      -2.71363707      -2.71188264      -0.00010359       0.00000000
Si       0.00166158      -2.71228663      -2.71506541       0.00000000
Si       2.71580364      -2.71390097      -0.00003453       0.00000000
Si      -2.71360449       0.00249237      -2.71617037       0.00000000
Si       2.71391400       2.71730232      -0.00010359       0.00000000
Si       2.71666701       0.00184077      -2.71523806       0.00000000
