10
Lattice="16.28999089631971 0.0 0.0 0.0 16.28999089631971 0.0 0.0 0.0 34.5300574570662" Properties=species:S:1:pos:R:3:initial_magmoms:R:1 pbc="T T T"
Si      -0.58411053      -2.23503687       0.71401293       0.00000000
Si       1.60487451       0.98813511       1.55171259       0.00000000
Si      -1.94825142       1.48421448       0.04647748       0.00000000
Si       1.01379186      -0.09255978      -2.24224506       0.00000000
Si       1.11319344      -2.67786423       2.25899215       0.00000000
Si      -0.92346381      -0.44051418      -3.57980212       0.00000000
Si       1.48963905       2.21156298      -2.64362268       0.00000000
Si       3.73357026       0.18806805       0.72433742       0.00000000
Si       1.77350859       3.39664419       1.17077678       0.00000000
Si      -0.62218026      -3.78566568      -1.18220624       0.00000000
