10
Lattice="16.28999089631971 0.0 0.0 0.0 16.28999089631971 0.0 0.0 0.0 34.5300574570662" Properties=species:S:1:pos:R:3:initial_magmoms:R:1 pbc="T T T"
Si       1.35764118      -1.35738054      -1.35730826       0.00000000
Si       1.35720135       1.35690813       1.35841322       0.00000000
Si      -1.35778779       1.35772263      -1.35706655       0.00000000
Si      -1.35918873      -1.35801585       1.35734279       0.00000000
Si       0.00011403      -2.71275741       2.71430574       0.00000000
Si      -0.00102627       2.71264338      -2.71472010       0.00000000
Si       2.71388142       0.00118917      -2.71354608       0.00000000
Si      -2.71301805       0.00162900      -2.71513447       0.00000000
Si       2.71466334      -2.71484253       0.00006906       0.00000000
Si      -2.71539639      -2.71458189      -0.00013812       0.00000000
