10
Lattice="16.28999089631971 0.0 0.0 0.0 16.28999089631971 0.0 0.0 0.0 34.5300574570662" Properties=species:S:1:pos:R:3:initial_magmoms:R:1 pbc="T T T"
Si       1.33548678      -1.35321030       1.31283352       0.00000000
Si      -1.32880788      -1.36578618      -1.35972536       0.00000000
Si       1.38621384       1.34724816      -1.36000160       0.00000000
Si      -1.27542555       1.38033315       1.54477204       0.00000000
Si       2.41935822       0.28556370       2.66744843       0.00000000
Si      -0.10559178      -2.54764197       2.80957423       0.00000000
Si      -2.65945327       2.71101438       0.01785205       0.00000000
Si       0.75504150       2.18641122       3.03122279       0.00000000
Si      -2.68339306      -0.01425375      -2.71827670       0.00000000
Si      -2.68426131      -2.72332962       0.03345964       0.00000000
