10
Lattice="16.28999089631971 0.0 0.0 0.0 16.28999089631971 0.0 0.0 0.0 34.5300574570662" Properties=species:S:1:pos:R:3:initial_magmoms:R:1 pbc="T T T"
Si       0.27447021       0.24280245       2.31037291       0.00000000
Si       1.70650782       1.41447699      -0.98945935       0.00000000
Si       0.10927332      -2.43411696      -0.17240867       0.00000000
Si      -2.07339120       1.18136709      -0.52402844       0.00000000
Si       0.53924787       2.51704935       2.50819572       0.00000000
Si      -1.79473446       1.69427403      -2.80909080       0.00000000
Si      -1.94660613      -3.07644795      -1.13082548       0.00000000
Si       0.58407795       3.60080676      -1.12388494       0.00000000
Si       2.31800184      -0.77634882       2.96527034       0.00000000
Si      -3.85042983       0.04569345       0.46829690       0.00000000
