10
Lattice="16.28999089631971 0.0 0.0 0.0 16.28999089631971 0.0 0.0 0.0 34.5300574570662" Properties=species:S:1:pos:R:3:initial_magmoms:R:1 pbc="T T T"
Si       0.50147136      -0.29642913      -2.28388834       0.00000000
Si       1.95584256      -0.00775404       1.42222480       0.00000000
Si      -1.70650782      -1.41447699       0.98945935       0.00000000
Si      -1.12242987       2.18632977      -0.13442559       0.00000000
Si       1.11382875       1.56494772       2.96133391       0.00000000
Si      -1.74249243      -0.78850116      -3.00263188       0.00000000
Si       1.27229787       1.96410159      -2.89458727       0.00000000
Si      -1.43203761      -1.17167454       3.29983225       0.00000000
Si      -3.77989902      -0.23310990       0.46543090       0.00000000
Si      -1.16725995       1.10257236       3.49765506       0.00000000
