10
Lattice="16.28999089631971 0.0 0.0 0.0 16.28999089631971 0.0 0.0 0.0 34.5300574570662" Properties=species:S:1:pos:R:3:initial_magmoms:R:1 pbc="T T T"
Si       1.81128510      -0.39040614      -1.43151339       0.00000000
Si      -1.44510219      -1.84575474      -0.15300277       0.00000000
Si       0.96581781      -0.26096580       2.15968365       0.00000000
Si      -1.47610206       1.90770139      -0.27727652       0.00000000
Si      -2.61303003      -1.55468502       1.89083247       0.00000000
Si       0.94962555      -2.06798292      -2.91316446       0.00000000
Si       3.21458715       0.33332942       1.86534928       0.00000000
Si       2.50546716       1.71131730      -2.26455149       0.00000000
Si       3.73453137      -0.97575471      -0.10542032       0.00000000
Si      -0.71881254       0.73207164      -3.74375092       0.00000000
