10
Lattice="16.28999089631971 0.0 0.0 0.0 16.28999089631971 0.0 0.0 0.0 34.5300574570662" Properties=species:S:1:pos:R:3:initial_magmoms:R:1 pbc="T T T"
Si      -1.33221249       0.92711996       1.69176658       0.00000000
Si       2.24876934       0.59429522      -0.29433437       0.00000000
Si      -0.17466138      -2.20617099       0.78307308       0.00000000
Si      -0.96581781       0.26096580      -2.15968365       0.00000000
Si       1.96014312       2.96301158      -0.28072952       0.00000000
Si      -3.46357980       0.79378142       0.78372915       0.00000000
Si       2.76871356      -0.71478891      -2.26510397       0.00000000
Si       0.84546729      -0.12944034      -3.59119704       0.00000000
Si      -2.41092000      -1.58478894      -2.31268642       0.00000000
Si       0.50797107      -2.13027588       3.01071192       0.00000000
