10
Lattice="16.28999089631971 0.0 0.0 0.0 16.28999089631971 0.0 0.0 0.0 34.5300574570662" Properties=species:S:1:pos:R:3:initial_magmoms:R:1 pbc="T T T"
Si       1.18327302      -1.50312717      -1.32719803       0.00000000
Si       1.86137685       1.34245890       0.43873916       0.00000000
Si      -1.51031106       1.21885038      -1.33873108       0.00000000
Si       0.59979780      -2.54687634       1.76231153       0.00000000
Si       2.56394826      -2.38886334       0.40120496       0.00000000
Si       0.81487467       3.07768599       1.65412880       0.00000000
Si      -0.03398094       2.63179611      -2.60139239       0.00000000
Si       3.49102845      -0.26591796       1.29705327       0.00000000
Si       2.76148080      -0.14835303      -2.51824397       0.00000000
Si      -2.87606466      -0.36329958      -2.41354877       0.00000000
