10
Lattice="16.28999089631971 0.0 0.0 0.0 16.28999089631971 0.0 0.0 0.0 34.5300574570662" Properties=species:S:1:pos:R:3:initial_magmoms:R:1 pbc="T T T"
Si      -0.22986819       0.13924692       2.29303881       0.00000000
Si      -1.80722889       0.52878969      -1.38286051       0.00000000
Si       1.47929490       1.77541452      -0.49661156       0.00000000
Si       1.07329923      -1.88737569      -1.02209027       0.00000000
Si      -0.23012883       0.93931398      -3.24555097       0.00000000
Si       2.13374565       0.91199565      -2.57100592       0.00000000
Si      -2.40111342      -1.72247202      -1.93768979       0.00000000
Si       1.82579949      -0.86639994       3.10307988       0.00000000
Si       3.15322272      -1.14647391      -1.77394816       0.00000000
Si      -0.78710022       2.48497434       2.76389093       0.00000000
