10
Lattice="16.28999089631971 0.0 0.0 0.0 16.28999089631971 0.0 0.0 0.0 34.5300574570662" Properties=species:S:1:pos:R:3:initial_magmoms:R:1 pbc="T T T"
Si      -1.44179532       1.25353179      -1.31671815       0.00000000
Si       1.26617283      -1.34107425      -1.41793271       0.00000000
Si       1.35865116       1.34648253       1.33735678       0.00000000
Si      -1.36073628      -1.36607940       1.33649353       0.00000000
Si      -0.61535475      -2.28714858      -2.62926058       0.00000000
Si      -2.36165904      -0.45553356      -2.68818650       0.00000000
Si      -0.00187335       2.70340695       2.69552829       0.00000000
Si       2.71101438      -0.01013238       2.69604624       0.00000000
Si      -2.71788876      -0.00899208       2.69732385       0.00000000
Si      -0.00159642      -2.72481201       2.69632248       0.00000000
