10
Lattice="16.28999089631971 0.0 0.0 0.0 16.28999089631971 0.0 0.0 0.0 34.5300574570662" Properties=species:S:1:pos:R:3:initial_magmoms:R:1 pbc="T T T"
Si       1.37205783      -1.28435247       1.33058198       0.00000000
Si      -1.36635633       1.29577176       1.35748091       0.00000000
Si      -1.32564762      -1.36420605      -1.33085822       0.00000000
Si       1.38078927       1.35433431      -1.33061651       0.00000000
Si       0.40185801       2.34020511       2.52259476       0.00000000
Si       2.12074623       0.43303707       2.81078278       0.00000000
Si      -0.10427229      -2.69729820       2.59324329       0.00000000
Si      -2.68765452      -0.00734679      -2.68740681       0.00000000
Si      -2.67418269       2.70938538       0.02800389       0.00000000
Si       0.02722059       2.70945054      -2.68951315       0.00000000
