10
Lattice="16.28999089631971 0.0 0.0 0.0 16.28999089631971 0.0 0.0 0.0 34.5300574570662" Properties=species:S:1:pos:R:3:initial_magmoms:R:1 pbc="T T T"
Si      -0.74868840      -1.71738954      -1.48020080       0.00000000
Si       1.87554915       0.83624715      -1.34774343       0.00000000
Si      -1.71888822       1.90716804      -0.28818802       0.00000000
Si       0.10016721      -1.27149966       2.77532039       0.00000000
Si      -2.07806643      -0.05382216       2.68606014       0.00000000
Si      -2.12074623      -0.43303707      -2.81078278       0.00000000
Si       1.14666939      -3.00672675       1.55993075       0.00000000
Si       1.95906798       0.14318910       3.02286651       0.00000000
Si       0.62675775       2.28472137      -2.76862155       0.00000000
Si      -2.22501852      -3.13033527      -0.21753948       0.00000000
