10
Lattice="16.28999089631971 0.0 0.0 0.0 16.28999089631971 0.0 0.0 0.0 34.5300574570662" Properties=species:S:1:pos:R:3:initial_magmoms:R:1 pbc="T T T"
Si      -1.76821434      -1.04443335      -1.16511385       0.00000000
Si       1.05116112       1.81765449      -1.08686870       0.00000000
Si      -1.55496195       1.17665928       1.47077409       0.00000000
Si       1.71888822      -1.90716804       0.28818802       0.00000000
Si       2.34564597       0.37755333      -2.48043353       0.00000000
Si      -0.40185801      -2.34020511      -2.52259476       0.00000000
Si      -0.35917821      -1.96099020       2.97424816       0.00000000
Si       2.38257540       3.02531364       0.57986358       0.00000000
Si       3.59443737      -1.07092089      -1.05955541       0.00000000
Si      -0.48159756       1.85108157       3.42496925       0.00000000
