10
Lattice="16.28999089631971 0.0 0.0 0.0 16.28999089631971 0.0 0.0 0.0 34.5300574570662" Properties=species:S:1:pos:R:3:initial_magmoms:R:1 pbc="T T T"
Si      -1.16879121      -1.01250495       1.82481097       0.00000000
Si       1.25110458       2.02597101       0.34467923       0.00000000
Si       1.49586183      -1.47035169      -1.18123940       0.00000000
Si      -1.75071888       0.50492484      -1.58227171       0.00000000
Si       0.56549106       2.52353277      -1.99117688       0.00000000
Si      -0.27318330       0.68804073      -3.48522424       0.00000000
Si       0.47853504      -3.59166807      -1.31462908       0.00000000
Si      -3.40255746      -1.28080125      -1.32153510       0.00000000
Si      -3.27419226      -1.83513366       0.98269145       0.00000000
Si      -1.33410213       0.53763516       3.61502280       0.00000000
