10
Lattice="16.28999089631971 0.0 0.0 0.0 16.28999089631971 0.0 0.0 0.0 34.5300574570662" Properties=species:S:1:pos:R:3:initial_magmoms:R:1 pbc="T T T"
Si      -1.81128510       0.39040614       1.43151339       0.00000000
Si       0.69418206       2.10172344      -0.83303810       0.00000000
Si      -0.86165955      -1.67757678      -1.48165106       0.00000000
Si       1.92324627      -0.58534857       1.32609307       0.00000000
Si      -2.53009764       1.12247778      -2.31223753       0.00000000
Si       1.40330205       0.72373556       3.29686267       0.00000000
Si       1.08144423      -1.89159480      -2.94541555       0.00000000
Si      -0.84546729       0.12944034       3.59119704       0.00000000
Si      -1.14639246       2.99347388      -1.97132208       0.00000000
Si       2.60490132       1.57906368      -2.21427570       0.00000000
