10
Lattice="16.28999089631971 0.0 0.0 0.0 16.28999089631971 0.0 0.0 0.0 34.5300574570662" Properties=species:S:1:pos:R:3:initial_magmoms:R:1 pbc="T T T"
Si      -1.35597960      -1.35062019       1.38721821       0.00000000
Si       1.35545832       1.36287027       1.38507734       0.00000000
Si      -1.44669861       1.38828267      -1.36561965       0.00000000
Si       1.40351382      -1.28673081      -1.53637778       0.00000000
Si       2.71111212      -2.70249471      -0.01045571       0.00000000
Si      -2.71611315      -2.71034649       0.01541423       0.00000000
Si      -2.71287144       2.72935692       0.05231307       0.00000000
Si       2.72356941       2.72026710       0.00521059       0.00000000
Si       0.00022806      -2.70985779       2.74728887       0.00000000
Si       2.71559187       0.00428427       2.74701263       0.00000000
