10
Lattice="16.28999089631971 0.0 0.0 0.0 16.28999089631971 0.0 0.0 0.0 34.5300574570662" Properties=species:S:1:pos:R:3:initial_magmoms:R:1 pbc="T T T"
Si      -1.86137685      -1.34245890      -0.43873916       0.00000000
Si      -1.04650218       1.73522709       1.21538964       0.00000000
Si       1.62965160      -1.60837686       0.85831412       0.00000000
Si       2.10082356      -0.09317880      -1.42136155       0.00000000
Si      -0.67810383      -2.84558607      -1.76593719       0.00000000
Si       0.90010395      -1.49081193      -2.95698312       0.00000000
Si       0.81239859       3.14991585       1.46293576       0.00000000
Si      -1.14666939       3.00672675      -1.55993075       0.00000000
Si       0.70257141      -3.73132224      -0.03753419       0.00000000
Si      -1.89535779       1.28933721      -3.04013155       0.00000000
