10
Lattice="16.28999089631971 0.0 0.0 0.0 16.28999089631971 0.0 0.0 0.0 34.5300574570662" Properties=species:S:1:pos:R:3:initial_magmoms:R:1 pbc="T T T"
Si       1.01758743       2.04351534      -0.72703077       0.00000000
Si      -0.10432116       0.14136462       2.40830020       0.00000000
Si      -2.25424278       0.35561070      -0.84940536       0.00000000
Si       0.78723054      -2.15689374      -0.94722907       0.00000000
Si      -1.34242632      -3.21541794      -0.99073696       0.00000000
Si      -1.84505427       1.29632562      -3.06412995       0.00000000
Si      -0.02808396       3.76170309       0.63397221       0.00000000
Si      -3.27156957      -1.76570568      -0.98279504       0.00000000
Si       0.01384650       2.71101438      -2.81658383       0.00000000
Si       1.87299162      -0.41466195       3.54499580       0.00000000
