10
Lattice="16.28999089631971 0.0 0.0 0.0 16.28999089631971 0.0 0.0 0.0 34.5300574570662" Properties=species:S:1:pos:R:3:initial_magmoms:R:1 pbc="T T T"
Si      -1.35628911      -1.35860229       1.35754997       0.00000000
Si       1.35692442      -1.35764118      -1.35789527       0.00000000
Si      -1.35808101       1.35744570      -1.35754997       0.00000000
Si       1.35635427       1.35935163       1.35820604       0.00000000
Si       0.00081450      -2.71476108       2.71047290       0.00000000
Si       0.00030951       2.71406061      -2.71295907       0.00000000
Si      -0.00257382       2.71218726       2.71582507       0.00000000
Si       2.71504566       0.00200367      -2.71482369       0.00000000
Si      -2.71510317       2.71487511      -0.00010359       0.00000000
Si      -0.00224802      -2.71523349      -2.71475463       0.00000000
