10
Lattice="16.28999089631971 0.0 0.0 0.0 16.28999089631971 0.0 0.0 0.0 34.5300574570662" Properties=species:S:1:pos:R:3:initial_magmoms:R:1 pbc="T T T"
Si      -1.27291689       1.30152213      -1.43962796       0.00000000
Si      -1.33180524      -1.35684297       1.48296321       0.00000000
Si       0.82262286       1.93355784       1.26963639       0.00000000
Si       1.47091762      -1.40783067      -1.40295702       0.00000000
Si       0.92554634       0.59961861       3.31160701       0.00000000
Si       0.42334682      -1.95085782       3.08053174       0.00000000
Si      -2.70374904       2.57930973      -0.00334942       0.00000000
Si      -2.53252485      -2.75447610      -0.05265837       0.00000000
Si      -2.59905321      -0.05370813      -2.80180496       0.00000000
Si       0.11631060       2.65909815      -2.79041003       0.00000000
