10
Lattice="16.28999089631971 0.0 0.0 0.0 16.28999089631971 0.0 0.0 0.0 34.5300574570662" Properties=species:S:1:pos:R:3:initial_magmoms:R:1 pbc="T T T"
Si      -1.56866184      -1.23932691       1.25203641       0.00000000
Si       1.37057544       1.57164291       1.16360489       0.00000000
Si      -1.39352805      -0.20442321      -1.97859554       0.00000000
Si       0.93620259      -0.01384650      -2.30245313       0.00000000
Si      -0.08058663      -2.52488484       2.61739363       0.00000000
Si       2.61355131       0.18743274       2.63495217       0.00000000
Si       1.99068687      -2.10299013      -2.39993153       0.00000000
Si      -2.39182812       1.84622715      -2.25590658       0.00000000
Si      -2.80999242       0.19857510       2.64310818       0.00000000
Si      -0.08397495       2.91491631       2.61244202       0.00000000
