10
Lattice="16.28999089631971 0.0 0.0 0.0 16.28999089631971 0.0 0.0 0.0 34.5300574570662" Properties=species:S:1:pos:R:3:initial_magmoms:R:1 pbc="T T T"
Si      -1.49685715       0.82354095       1.61517887       0.00000000
Si      -0.36712773      -2.31761088       0.21798837       0.00000000
Si       2.05587945       0.64233099       0.95841681       0.00000000
Si      -0.28124685       0.65432043      -2.25118835       0.00000000
Si       1.85150511      -0.35197803       3.15991638       0.00000000
Si      -0.23324022       0.65233305       3.63011244       0.00000000
Si      -2.16008984      -2.51208090       1.82025300       0.00000000
Si       1.94660613       3.07644795       1.13082548       0.00000000
Si      -0.57813210      -1.37244879      -3.51498916       0.00000000
Si       1.78313598       1.40299254      -3.14468862       0.00000000
