10
Lattice="16.28999089631971 0.0 0.0 0.0 16.28999089631971 0.0 0.0 0.0 34.5300574570662" Properties=species:S:1:pos:R:3:initial_magmoms:R:1 pbc="T T T"
Si       0.02630835      -0.95716782      -2.10647280       0.00000000
Si      -2.32600675       0.09661599       0.29975560       0.00000000
Si       0.71928495       2.19763503      -0.56957362       0.00000000
Si       1.02056850      -1.14751647       1.82802226       0.00000000
Si      -1.36546038       3.20194611      -0.09937756       0.00000000
Si       2.65654062       2.54558943       0.76798344       0.00000000
Si       2.23866954      -1.40077710      -2.73081112       0.00000000
Si      -3.29231000       0.03753216      -1.90923700       0.00000000
Si      -1.49934789       0.23200218      -3.51150163       0.00000000
Si      -2.89380284       2.13677559       1.34301281       0.00000000
