10
Lattice="16.28999089631971 0.0 0.0 0.0 16.28999089631971 0.0 0.0 0.0 34.5300574570662" Properties=species:S:1:pos:R:3:initial_magmoms:R:1 pbc="T T T"
Si       1.35978657      -1.35379674       1.36183170       0.00000000
Si      -1.35710803       1.36186029       1.36207341       0.00000000
Si      -1.34897524      -1.35433431      -1.38100625       0.00000000
Si       1.36249071       1.37398005      -1.37530879       0.00000000
Si       2.71056966      -2.71073745       0.00314224       0.00000000
Si      -2.71708633      -2.71173114      -0.00113949       0.00000000
Si       0.00028345      -2.71251306       2.71903636       0.00000000
Si       2.71342041       2.71974582       0.00169197       0.00000000
Si      -2.71522927       0.00221544       2.71900183       0.00000000
Si       2.71501683       0.00229689       2.71989962       0.00000000
