10
Lattice="16.28999089631971 0.0 0.0 0.0 16.28999089631971 0.0 0.0 0.0 34.5300574570662" Properties=species:S:1:pos:R:3:initial_magmoms:R:1 pbc="T T T"
Si       2.40521198      -0.39623796       0.04768604       0.00000000
Si      -0.10292348       1.33393923      -2.04197062       0.00000000
Si      -0.27757345       0.86102424       2.39265808       0.00000000
Si      -0.50219952      -2.55047643      -0.23107527       0.00000000
Si       1.13801288      -2.71176372       1.87156469       0.00000000
Si      -0.92554634      -0.59961861      -3.31160701       0.00000000
Si      -2.25735158      -1.95646158      -1.82864380       0.00000000
Si       1.43489813      -0.68499450       3.13536550       0.00000000
Si       1.10132780       3.61362699       0.29612994       0.00000000
Si      -3.54577655       1.28663307       1.05565351       0.00000000
