10
Lattice="16.28999089631971 0.0 0.0 0.0 16.28999089631971 0.0 0.0 0.0 34.5300574570662" Properties=species:S:1:pos:R:3:initial_magmoms:R:1 pbc="T T T"
Si      -2.26446217      -0.24189021       0.75254849       0.00000000
Si       0.26472065       2.39451597      -0.04340431       0.00000000
Si       1.71247159      -1.54601874       0.74270742       0.00000000
Si       0.27757345      -0.86102424      -2.39265808       0.00000000
Si      -3.26820310       0.42560883      -1.33700457       0.00000000
Si       2.14559011       2.57038281       1.31563045       0.00000000
Si       1.37890126       2.75260275      -2.09652814       0.00000000
Si       2.68278544      -1.25726220      -2.34497204       0.00000000
Si       3.77685442      -0.79734663      -0.15079285       0.00000000
Si       1.41558634      -3.57278796      -0.52109339       0.00000000
