10
Lattice="16.28999089631971 0.0 0.0 0.0 16.28999089631971 0.0 0.0 0.0 34.5300574570662" Properties=species:S:1:pos:R:3:initial_magmoms:R:1 pbc="T T T"
Si       1.77703863       1.13567364      -0.99232535       0.00000000
Si       0.40696655      -2.29860045       0.01605649       0.00000000
Si      -2.22174001       0.66841128      -0.39201996       0.00000000
Si       0.21505895       0.55226358       2.32642939       0.00000000
Si       1.07964744       3.20341221       0.06681570       0.00000000
Si      -3.26938249      -1.13775876       0.67433787       0.00000000
Si       1.67058348      -2.46980835       2.03099005       0.00000000
Si       0.36519899       2.87440308       2.32736170       0.00000000
Si       2.23398942      -0.48062016       3.06882604       0.00000000
Si       3.85042983      -0.04569345      -0.46829690       0.00000000
