10
Lattice="16.28999089631971 0.0 0.0 0.0 16.28999089631971 0.0 0.0 0.0 34.5300574570662" Properties=species:S:1:pos:R:3:initial_magmoms:R:1 pbc="T T T"
Si      -1.75886388      -0.88985754      -1.27982090       0.00000000
Si      -1.23206157       1.44375012       1.40526017       0.00000000
Si       1.48900374      -1.28775708       1.36432822       0.00000000
Si       0.68970231       1.86569763      -1.36790696       0.00000000
Si      -2.54702458       2.74258018      -0.08540669       0.00000000
Si      -3.33277273       0.85832010      -1.48078578       0.00000000
Si      -2.65083260      -2.66445756      -0.05531373       0.00000000
Si      -2.59175855       0.09223398       2.76318307       0.00000000
Si      -0.02256165       1.07188200      -3.63687830       0.00000000
Si       2.65518855       2.71566747      -0.09187763       0.00000000
