10
Lattice="16.28999089631971 0.0 0.0 0.0 16.28999089631971 0.0 0.0 0.0 34.5300574570662" Properties=species:S:1:pos:R:3:initial_magmoms:R:1 pbc="T T T"
Si       1.35969698       1.35151614      -1.35792289       0.00000000
Si       1.35428870      -1.35580041       1.35938006       0.00000000
Si      -1.35961620       1.35751086       1.35944912       0.00000000
Si      -1.36792410      -1.36735002      -1.36859614       0.00000000
Si       2.59175855      -0.09223398      -2.76318307       0.00000000
Si       2.71059410      -2.71153566      -0.00062154       0.00000000
Si       2.70746642       2.71858664       0.00345301       0.00000000
Si       2.71100135       0.00179190       2.71765516       0.00000000
Si      -0.00271717      -2.71336014       2.71741345       0.00000000
Si      -2.72093892      -2.70989037       0.00024171       0.00000000
