10
Lattice="16.28999089631971 0.0 0.0 0.0 16.28999089631971 0.0 0.0 0.0 34.5300574570662" Properties=species:S:1:pos:R:3:initial_magmoms:R:1 pbc="T T T"
Si      -1.39795893       1.29648852       1.32764692       0.00000000
Si      -1.37297007      -1.32383943      -1.36911754       0.00000000
Si       1.33911945       1.39385385      -1.36131375       0.00000000
Si       1.43399241      -1.38302100       1.48824631       0.00000000
Si      -0.01244556       2.55856509       2.73505832       0.00000000
Si      -2.70925180      -2.67094098       0.01253442       0.00000000
Si       2.71078632      -2.67804342      -0.00728585       0.00000000
Si      -0.01826109      -2.67781536      -2.72390510       0.00000000
Si       2.69755884       0.03635928      -2.72280014       0.00000000
Si       2.68991883       2.75813225       0.01249989       0.00000000
