10
Lattice="16.28999089631971 0.0 0.0 0.0 16.28999089631971 0.0 0.0 0.0 34.5300574570662" Properties=species:S:1:pos:R:3:initial_magmoms:R:1 pbc="T T T"
Si       1.35470898      -1.35397593      -1.35478756       0.00000000
Si      -1.33628173      -1.34710155       1.38165196       0.00000000
Si       1.37297007       1.32383943       1.36911754       0.00000000
Si      -1.35840844       1.35985662      -1.35461491       0.00000000
Si      -0.02498886       2.62032795       2.69676446       0.00000000
Si       2.70938538      -2.71086777       0.00379831       0.00000000
Si      -0.00203625      -2.71238274      -2.71175052       0.00000000
Si       2.71326240       0.00193851      -2.71154334       0.00000000
Si      -2.71662310       0.00228060      -2.71226847       0.00000000
Si       2.71208952       2.71769328       0.00780380       0.00000000
