10
Lattice="16.28999089631971 0.0 0.0 0.0 16.28999089631971 0.0 0.0 0.0 34.31420841018396" Properties=species:S:1:pos:R:3:initial_magmoms:R:1 pbc="T T T"
Si       1.10806209       0.50891589      -2.12470266       0.00000000
Si      -1.33873664      -1.94152365      -0.96189643       0.00000000
Si      -1.60480267       2.03756949       0.19535090       0.00000000
Si       1.46401488      -0.42764508       2.23474839       0.00000000
Si      -3.08007152      -0.56329191      -1.66369101       0.00000000
Si       2.48966586       2.25991170      -1.39854497       0.00000000
Si      -3.60581498       0.79834032       0.18742431       0.00000000
Si       2.49346143      -1.34700381      -2.63986216       0.00000000
Si      -0.23678004      -1.14693003       3.77856062       0.00000000
Si      -2.06929331      -3.51372042       0.59071943       0.00000000
