10
Lattice="16.28999089631971 0.0 0.0 0.0 16.28999089631971 0.0 0.0 0.0 34.31420841018396" Properties=species:S:1:pos:R:3:initial_magmoms:R:1 pbc="T T T"
Si       2.09922714       0.99798079       0.24246433       0.00000000
Si       0.30517686      -0.93367831      -2.13482536       0.00000000
Si      -1.58096079       1.75380421      -0.07696681       0.00000000
Si       0.04142547      -1.40903680       1.93226847       0.00000000
Si       1.45318203       2.35125625       2.03040716       0.00000000
Si       0.97151931      -3.30312397       0.82004141       0.00000000
Si      -0.79531038       3.12017683       1.69186299       0.00000000
Si       2.37790017       2.51291821      -1.58970954       0.00000000
Si       3.63900681      -0.72726591       0.90599855       0.00000000
Si      -1.25951022      -2.73199657      -2.37492201       0.00000000
