10
Lattice="16.28999089631971 0.0 0.0 0.0 16.28999089631971 0.0 0.0 0.0 34.31420841018396" Properties=species:S:1:pos:R:3:initial_magmoms:R:1 pbc="T T T"
Si       1.54598616       0.91680120      -1.48923748       0.00000000
Si      -0.34246467       1.14000678       2.05775560       0.00000000
Si       0.57502071      -2.25484551       0.59483714       0.00000000
Si      -1.89447813      -0.47568429      -1.77071709       0.00000000
Si      -0.00151497       2.36447721      -2.58969476       0.00000000
Si      -1.74863376      -0.46284777       3.08395689       0.00000000
Si       1.94043222       1.03177602       2.87446853       0.00000000
Si      -0.96234804      -2.59458975       2.40563324       0.00000000
Si      -0.61137999      -2.66835087      -2.54783140       0.00000000
Si       2.64033207      -2.38311297       1.69745621       0.00000000
