10
Lattice="16.28999089631971 0.0 0.0 0.0 16.28999089631971 0.0 0.0 0.0 34.31420841018396" Properties=species:S:1:pos:R:3:initial_magmoms:R:1 pbc="T T T"
Si      -1.35648459       1.35455511       1.36038755       0.00000000
Si       1.35804843      -1.35992178       1.35994147       0.00000000
Si       1.35185823       1.35564130      -1.37385246       0.00000000
Si      -1.35371529      -1.36306575      -1.37591817       0.00000000
Si       2.71003698      -0.08887824      -2.68254219       0.00000000
Si       2.71265967       2.71297474      -0.00164708       0.00000000
Si      -2.71313208       2.71420463      -0.00487262       0.00000000
Si       0.00055386       2.71260007       2.71713780       0.00000000
Si       2.71498914      -0.00177561       2.71689760       0.00000000
Si      -2.71492398      -0.00208512       2.71710348       0.00000000
