10
Lattice="16.28999089631971 0.0 0.0 0.0 16.28999089631971 0.0 0.0 0.0 34.31420841018396" Properties=species:S:1:pos:R:3:initial_magmoms:R:1 pbc="T T T"
Si      -0.62449344       0.80355312      -2.05281435       0.00000000
Si       0.57409218       1.94725954       1.19595377       0.00000000
Si       2.00702574      -1.32009273      -0.30313189       0.00000000
Si      -2.09339532      -0.62859852       1.10999663       0.00000000
Si       0.40876497       0.79583166       3.29245014       0.00000000
Si      -1.14243399      -2.57735493       1.92996942       0.00000000
Si       0.65630781      -1.56344904       3.01594609       0.00000000
Si       1.12164795      -3.10409208      -1.53010572       0.00000000
Si      -2.75973777       1.74084714      -1.84487013       0.00000000
Si       2.59612101      -2.06444799       1.81872269       0.00000000
