10
Lattice="16.28999089631971 0.0 0.0 0.0 16.28999089631971 0.0 0.0 0.0 34.31420841018396" Properties=species:S:1:pos:R:3:initial_magmoms:R:1 pbc="T T T"
Si      -1.34214939      -1.35109260       1.37923293       0.00000000
Si       1.37161800       1.36495539       1.37415442       0.00000000
Si       1.38777768      -1.32701598      -1.42758167       0.00000000
Si      -1.38491064       1.36518345      -1.47832212       0.00000000
Si       2.13456015       0.56687571      -2.65530047       0.00000000
Si       0.44922933       2.47564017      -2.70764103       0.00000000
Si      -2.70821250      -2.69052156      -0.00798492       0.00000000
Si      -2.69118945       2.71956663       0.00923053       0.00000000
Si      -2.69754255       0.00578295       2.73903714       0.00000000
Si       2.73895173      -2.69866656       0.00374711       0.00000000
