10
Lattice="16.28999089631971 0.0 0.0 0.0 16.28999089631971 0.0 0.0 0.0 34.31420841018396" Properties=species:S:1:pos:R:3:initial_magmoms:R:1 pbc="T T T"
Si       0.19218942      -2.13718284      -0.91203786       0.00000000
Si      -1.28412441       0.05307282       1.96511855       0.00000000
Si       1.97778519       0.85750560       0.94518540       0.00000000
Si      -0.65669877       1.07735544      -1.99581842       0.00000000
Si       0.62908722       0.84318669       3.24249690       0.00000000
Si      -2.08575531      -2.37359961      -1.55886105       0.00000000
Si       3.39850125      -0.95931810       0.24150353       0.00000000
Si      -2.42395200      -0.27256428      -2.63835233       0.00000000
Si       2.42779644       2.58615153      -0.60389609       0.00000000
Si       1.00286127       0.49324491      -3.51576713       0.00000000
