10
Lattice="16.28999089631971 0.0 0.0 0.0 16.28999089631971 0.0 0.0 0.0 34.31420841018396" Properties=species:S:1:pos:R:3:initial_magmoms:R:1 pbc="T T T"
Si       0.31711743       0.87293223      -2.15284032       0.00000000
Si       1.14608295       1.53152064       1.36351015       0.00000000
Si      -2.34981621      -0.04909806       0.11968803       0.00000000
Si       1.08779733      -2.12561694       0.03908391       0.00000000
Si      -2.46081627      -1.40634828      -1.90447395       0.00000000
Si       3.13913187       1.43496981       0.10157011       0.00000000
Si      -0.79263882      -0.72382986      -3.46381539       0.00000000
Si      -1.30823361       2.63713923      -2.15616880       0.00000000
Si       2.66357790       1.20661659      -2.27719509       0.00000000
Si       2.58502752      -2.03458842       1.82404140       0.00000000
