10
Lattice="16.28999089631971 0.0 0.0 0.0 16.28999089631971 0.0 0.0 0.0 34.31420841018396" Properties=species:S:1:pos:R:3:initial_magmoms:R:1 pbc="T T T"
Si      -1.99818027      -1.04806602      -0.95935717       0.00000000
Si       1.80245592      -1.72732644       0.15129143       0.00000000
Si      -1.18094355       0.67790835       2.20276753       0.00000000
Si       0.79407234       1.21324662      -2.18502707       0.00000000
Si      -2.13346872       2.59734276       1.11308491       0.00000000
Si      -1.28203929      -3.23612253      -1.24063090       0.00000000
Si       3.68096985      -0.53757000       0.74228537       0.00000000
Si      -0.75554649       3.01581657      -2.19552722       0.00000000
Si       2.67019164       2.41285851      -1.51212507       0.00000000
Si      -2.77632099       2.59644681      -1.14763934       0.00000000
