10
Lattice="16.28999089631971 0.0 0.0 0.0 16.28999089631971 0.0 0.0 0.0 34.31420841018396" Properties=species:S:1:pos:R:3:initial_magmoms:R:1 pbc="T T T"
Si      -1.50638517      -1.12842459       1.37352716       0.00000000
Si      -1.69934022       0.94377159      -1.30389677       0.00000000
Si       1.20076848       1.59653633       1.28419350       0.00000000
Si       0.92574441      -1.56437757      -1.53411092       0.00000000
Si      -2.77946496      -2.28257109      -0.22502314       0.00000000
Si      -0.13602150      -2.41728939       2.70575645       0.00000000
Si      -0.96430284      -3.12525279      -1.58523912       0.00000000
Si       2.72569167      -2.48876991      -0.08742308       0.00000000
Si       2.56999185       0.30411068       2.69728084       0.00000000
Si       3.09570273       2.26412171       0.00884607       0.00000000
