10
Lattice="16.28999089631971 0.0 0.0 0.0 16.28999089631971 0.0 0.0 0.0 34.31420841018396" Properties=species:S:1:pos:R:3:initial_magmoms:R:1 pbc="T T T"
Si      -2.01745134      -0.14701725       1.32751452       0.00000000
Si       1.27697310       1.10122029      -1.78536926       0.00000000
Si      -1.12332582      -1.43575173      -1.72641742       0.00000000
Si       1.85414409       1.07038332       1.36930925       0.00000000
Si       2.97859392      -1.08605430       1.47897752       0.00000000
Si       3.20466654       1.91498724      -0.63906817       0.00000000
Si      -1.42315956      -0.99204471       3.48093819       0.00000000
Si      -2.29472343      -3.20336334      -0.62149929       0.00000000
Si      -3.53517435       1.67242914       1.10845249       0.00000000
Si      -3.67008813      -1.73561805       0.54593936       0.00000000
