10
Lattice="16.28999089631971 0.0 0.0 0.0 16.28999089631971 0.0 0.0 0.0 34.31420841018396" Properties=species:S:1:pos:R:3:initial_magmoms:R:1 pbc="T T T"
Si       0.58909527      -0.74435526       2.12185458       0.00000000
Si      -0.88537779      -1.78399935      -1.22697384       0.00000000
Si       1.95981732       1.05770970      -0.89076303       0.00000000
Si      -2.00702574       1.32009273       0.30313189       0.00000000
Si      -1.35071793      -0.24335631       3.31907798       0.00000000
Si      -2.73786030      -2.41259787       0.20173334       0.00000000
Si       1.41473763       3.38940624      -0.84673788       0.00000000
Si      -2.63151918       2.12364585      -1.74968246       0.00000000
Si      -1.47966957      -0.93897189      -3.38039750       0.00000000
Si       0.73997325      -3.54820635      -1.22364536       0.00000000
