10
Lattice="16.28999089631971 0.0 0.0 0.0 16.28999089631971 0.0 0.0 0.0 34.31420841018396" Properties=species:S:1:pos:R:3:initial_magmoms:R:1 pbc="T T T"
Si       1.27307979       1.15414650       1.59855029       0.00000000
Si       1.81516212      -0.84268170      -1.36021598       0.00000000
Si      -0.97494021       1.93155417      -1.18981153       0.00000000
Si      -1.49247351      -1.43677800       1.36526502       0.00000000
Si       1.08012474       3.22634268      -1.07887363       0.00000000
Si       2.77946496       2.28257109       0.22502314       0.00000000
Si       1.17230985      -0.84357765      -3.62094024       0.00000000
Si      -0.08509896       2.59866604       2.90724003       0.00000000
Si       2.76768729      -2.76211611      -0.27053337       0.00000000
Si       2.64344346      -0.13471830       2.93077959       0.00000000
