10
Lattice="16.28999089631971 0.0 0.0 0.0 16.28999089631971 0.0 0.0 0.0 34.31420841018396" Properties=species:S:1:pos:R:3:initial_magmoms:R:1 pbc="T T T"
Si       1.35645201       1.35760860       1.35705907       0.00000000
Si      -1.35762815       1.35705474      -1.35657867       0.00000000
Si       1.35716877      -1.35754344      -1.35750516       0.00000000
Si      -1.35873913      -1.35726651       1.35839733       0.00000000
Si       0.00011403       2.71485882      -2.71329460       0.00000000
Si      -0.00228060      -2.71515204      -2.71384363       0.00000000
Si       0.00384444       2.71233387       2.71700054       0.00000000
Si       2.71464705      -2.71477737       0.00085786       0.00000000
Si       2.71472850       2.71477737       0.00054903       0.00000000
Si      -2.71414925       0.00206883       2.71549071       0.00000000
