10
Lattice="16.28999089631971 0.0 0.0 0.0 16.28999089631971 0.0 0.0 0.0 34.31420841018396" Properties=species:S:1:pos:R:3:initial_magmoms:R:1 pbc="T T T"
Si      -1.35639309       1.27516491       1.40362348       0.00000000
Si      -1.35703749      -1.34105796      -1.36035324       0.00000000
Si       1.36095620       1.36920708      -1.35884341       0.00000000
Si       1.22099251      -1.52309871       1.38313789       0.00000000
Si       2.21684908       0.16366563       2.74438329       0.00000000
Si      -2.58875697      -0.23884398       2.72880463       0.00000000
Si      -0.00162737      -2.70039330      -2.71744663       0.00000000
Si      -2.70249375       2.72486088       0.01568160       0.00000000
Si       2.71356376       0.01448181      -2.71878488       0.00000000
Si      -2.71619364       0.01392795      -2.71799565       0.00000000
