10
Lattice="16.28999089631971 0.0 0.0 0.0 16.28999089631971 0.0 0.0 0.0 34.31420841018396" Properties=species:S:1:pos:R:3:initial_magmoms:R:1 pbc="T T T"
Si       1.76830623      -0.08640216       1.61033239       0.00000000
Si       0.81375066       0.44515683      -2.21419416       0.00000000
Si      -1.42071606       1.81682370       0.70368187       0.00000000
Si      -1.12135473      -2.10883824      -0.43225632       0.00000000
Si       0.04538394      -1.07193087       2.92385498       0.00000000
Si      -3.39850125       0.95931810      -0.24150353       0.00000000
Si      -0.84662388      -3.03047757       1.71047905       0.00000000
Si      -3.20631183      -1.17786474      -1.15354139       0.00000000
Si      -0.17005131      -1.26343611      -3.54864016       0.00000000
Si      -0.97070481       3.54546963      -0.84539963       0.00000000
