10
Lattice="16.28999089631971 0.0 0.0 0.0 16.28999089631971 0.0 0.0 0.0 34.31420841018396" Properties=species:S:1:pos:R:3:initial_magmoms:R:1 pbc="T T T"
Si       1.35639309      -1.27516491      -1.40362348       0.00000000
Si      -1.23236388      -1.51400889       1.32518116       0.00000000
Si      -1.34610066       1.44969597      -1.38794188       0.00000000
Si       2.29014403       1.08116730       2.11787413       0.00000000
Si      -2.17765629       0.14869512       2.74778040       0.00000000
Si       2.55396058       2.57197923       0.11769780       0.00000000
Si       2.57738560      -2.79826362      -0.02048559       0.00000000
Si      -0.00064440      -2.61622287      -2.76397672       0.00000000
Si      -2.75657031      -2.70073539      -0.02419153       0.00000000
Si       2.71734928       0.09404217      -2.76246689       0.00000000
