10
Lattice="16.28999089631971 0.0 0.0 0.0 16.28999089631971 0.0 0.0 0.0 34.31420841018396" Properties=species:S:1:pos:R:3:initial_magmoms:R:1 pbc="T T T"
Si       0.49169736       2.25559485      -0.29369547       0.00000000
Si      -0.72019719       0.10225233       2.26439588       0.00000000
Si      -1.43293356      -0.15781752      -1.92842528       0.00000000
Si       1.56309948      -1.84414203      -0.03407403       0.00000000
Si      -3.04464987      -1.69710849      -1.16905142       0.00000000
Si      -2.32940484      -1.67236398       2.40820681       0.00000000
Si      -0.74883501       3.06954099      -2.09498654       0.00000000
Si       0.68233923      -3.40687431      -1.58864579       0.00000000
Si      -0.02870298      -0.57603069      -3.85026222       0.00000000
Si      -0.18746532       3.60882144       1.50443868       0.00000000
