10
Lattice="16.28999089631971 0.0 0.0 0.0 16.28999089631971 0.0 0.0 0.0 34.31420841018396" Properties=species:S:1:pos:R:3:initial_magmoms:R:1 pbc="T T T"
Si       1.78076189       0.90997569      -1.28767570       0.00000000
Si      -0.88436781      -1.80113643      -1.31193586       0.00000000
Si       0.15700302      -1.07815365       2.14110486       0.00000000
Si      -1.94437440       1.42754157      -0.08211395       0.00000000
Si      -2.17044702      -1.57349997       2.03593175       0.00000000
Si       0.38159325       2.19709746      -2.69473061       0.00000000
Si      -2.34286038      -0.54102348      -2.69167664       0.00000000
Si      -1.10209995       3.35267748      -1.24114561       0.00000000
Si      -2.00870361      -3.15467253       0.24390553       0.00000000
Si      -3.29489685       0.58293765       1.92626348       0.00000000
