10
Lattice="16.28999089631971 0.0 0.0 0.0 16.28999089631971 0.0 0.0 0.0 34.31420841018396" Properties=species:S:1:pos:R:3:initial_magmoms:R:1 pbc="T T T"
Si       2.05613424       1.08592398      -0.22077774       0.00000000
Si      -0.73604736      -1.06982946       1.95501880       0.00000000
Si       0.98536811      -1.89245817      -1.09400620       0.00000000
Si      -1.95413211       1.20391245      -0.71208885       0.00000000
Si      -0.84927915      -1.83462867      -2.55112556       0.00000000
Si      -2.61216666      -2.26944135       1.28211680       0.00000000
Si       1.00528752      -2.44806120       2.65681339       0.00000000
Si      -1.38730527       2.25569259      -2.66216640       0.00000000
Si       3.45208625       0.00237834       1.49400715       0.00000000
Si       1.69219610       3.38525326      -0.13488923       0.00000000
