10
Lattice="16.28999089631971 0.0 0.0 0.0 16.28999089631971 0.0 0.0 0.0 34.31420841018396" Properties=species:S:1:pos:R:3:initial_magmoms:R:1 pbc="T T T"
Si      -1.72292229      -0.98552871       1.31352259       0.00000000
Si      -1.76830623       0.08640216      -1.61033239       0.00000000
Si       0.86643415       1.81631871       1.34771329       0.00000000
Si       1.78490833      -1.69761348      -0.15053652       0.00000000
Si      -0.40641840      -2.19849840       2.78869124       0.00000000
Si       2.29318891       0.54354843       2.77040862       0.00000000
Si      -3.18902229       1.90322586      -0.90665052       0.00000000
Si       3.59853919      -0.65699199       1.16057035       0.00000000
Si       0.94809918      -3.52856876       1.25387760       0.00000000
Si      -2.61493011      -2.94407541       0.10014666       0.00000000
