10
Lattice="16.28999089631971 0.0 0.0 0.0 16.28999089631971 0.0 0.0 0.0 34.31420841018396" Properties=species:S:1:pos:R:3:initial_magmoms:R:1 pbc="T T T"
Si       0.84857868       0.27704403       2.23666998       0.00000000
Si       2.27934567      -0.16252533      -0.81393348       0.00000000
Si      -1.51309665      -1.95403437      -0.68827478       0.00000000
Si      -0.33324453       2.25437310      -1.38310357       0.00000000
Si      -1.82278910      -1.03985586      -2.91355244       0.00000000
Si       0.77481756       1.66011390      -3.35932857       0.00000000
Si       2.60796384       2.32347528       1.68153441       0.00000000
Si       2.78278812       1.63440828      -2.16004631       0.00000000
Si       2.61197118      -1.95660819      -2.27990591       0.00000000
Si      -0.83782728       0.96176160       3.82401184       0.00000000
