10
Lattice="16.28999089631971 0.0 0.0 0.0 16.28999089631971 0.0 0.0 0.0 34.31420841018396" Properties=species:S:1:pos:R:3:initial_magmoms:R:1 pbc="T T T"
Si       1.24849655       1.37125182      -1.47334999       0.00000000
Si      -1.31551573       1.30790781       1.53669405       0.00000000
Si      -1.42269171      -1.31737230      -1.45845762       0.00000000
Si       1.84813145      -1.20451518       1.17539955       0.00000000
Si       1.06826399      -0.66021741       3.31224945       0.00000000
Si      -1.23963153      -0.05536971       3.59969973       0.00000000
Si       0.00525027       3.42574532       1.70407886       0.00000000
Si       3.11264270       2.22894508      -0.33298526       0.00000000
Si       2.58215885      -0.03728781      -2.87724798       0.00000000
Si      -2.97765792       2.48305116       0.15527188       0.00000000
