10
Lattice="16.28999089631971 0.0 0.0 0.0 16.28999089631971 0.0 0.0 0.0 34.31420841018396" Properties=species:S:1:pos:R:3:initial_magmoms:R:1 pbc="T T T"
Si      -1.65667412      -1.09864647      -1.23414551       0.00000000
Si       0.14082705      -1.43037603       1.85516440       0.00000000
Si       1.90092245       0.22206528      -1.41034907       0.00000000
Si      -1.02390942       1.92539655       0.94885702       0.00000000
Si      -3.30080753      -1.34011314       0.38936354       0.00000000
Si      -2.06027516      -2.15405928       2.19065460       0.00000000
Si       3.58506410       1.04045859      -0.02480919       0.00000000
Si      -2.59409846       0.47498382      -2.70492193       0.00000000
Si       0.58589591       3.02992371       2.20788035       0.00000000
Si      -0.95386095       2.21643369      -2.93232232       0.00000000
