10
Lattice="10.86 0.0 0.0 0.0 10.86 0.0 0.0 0.0 10.86" Properties=species:S:1:pos:R:3:initial_magmoms:R:1 pbc="T T T"
Si       1.35480672      -1.35480672       1.31700306       0.00000000
Si       1.35480672       1.36019328      -1.39799694       0.00000000
Si      -1.36019328      -1.35480672      -1.39799694       0.00000000
Si      -1.41850062       1.41850062       1.34493498       0.00000000
Si       2.71230672       0.00269328       2.67450306       0.00000000
Si      -0.00269328      -2.71230672       2.67450306       0.00000000
Si       2.71230672      -2.71230672      -0.04049694       0.00000000
Si       2.71230672       2.71769328      -0.04049694       0.00000000
Si      -2.71769328      -2.71230672      -0.04049694       0.00000000
Si      -2.72987820       2.72987820      -0.02906136       0.00000000
