10
Lattice="10.86 0.0 0.0 0.0 10.86 0.0 0.0 0.0 10.86" Properties=species:S:1:pos:R:3:initial_magmoms:R:1 pbc="T T T"
Si      -1.26881724      -1.44113286      -1.15931586       0.00000000
Si       1.49194680       1.18027566      -1.37077092       0.00000000
Si      -1.44697554       1.43905860       1.35419856       0.00000000
Si      -2.50779120       2.62789194       0.03569682       0.00000000
Si      -2.50779120      -0.08710806      -2.67930318       0.00000000
Si      -2.50779120      -0.08710806       2.75069682       0.00000000
Si       0.20720880       2.62789194      -2.67930318       0.00000000
Si      -2.50779120      -2.80210806       0.03569682       0.00000000
Si       0.20720880       2.62789194       2.75069682       0.00000000
Si       0.20720880      -2.80210806      -2.67930318       0.00000000
