10
Lattice="16.28999089631971 0.0 0.0 0.0 16.28999089631971 0.0 0.0 0.0 34.54679606040008" Properties=species:S:1:pos:R:3:initial_magmoms:R:1 pbc="T T T"
Si       1.95753020       0.69884263      -1.24445371       0.00000000
Si      -1.38860588       1.32547006       1.48079051       0.00000000
Si       1.30171109      -1.40339021       1.49277135       0.00000000
Si      -1.61502059      -1.31104038      -1.31378917       0.00000000
Si       2.63996717       2.57090572       0.16189674       0.00000000
Si      -2.73795545       2.61850510      -0.07023022       0.00000000
Si       2.48340398      -2.96905354       0.14251252       0.00000000
Si       2.68056185      -0.03698156       2.86583798       0.00000000
Si      -0.03695387       2.68148224       2.87091636       0.00000000
Si      -2.77380974      -2.77826506       0.15616888       0.00000000
