10
Lattice="16.28999089631971 0.0 0.0 0.0 16.28999089631971 0.0 0.0 0.0 34.54679606040008" Properties=species:S:1:pos:R:3:initial_magmoms:R:1 pbc="T T T"
Si       1.36225125       1.35490935      -1.35055938       0.00000000
Si       1.35581670      -1.35707357       1.36055723       0.00000000
Si      -1.36226754       1.35837912       1.36045359       0.00000000
Si      -1.37885076      -1.36640865      -1.37306663       0.00000000
Si      -0.04059468       2.60788728      -2.70394124       0.00000000
Si       2.57657301      -0.09913605      -2.76858178       0.00000000
Si      -2.71822759      -2.70780755       0.00532021       0.00000000
Si       2.71502172      -2.71381856       0.00241828       0.00000000
Si       2.71505430       2.71517322       0.00386924       0.00000000
Si       2.71267596       0.00127062       2.71807434       0.00000000
