10
Lattice="16.28999089631971 0.0 0.0 0.0 16.28999089631971 0.0 0.0 0.0 34.54679606040008" Properties=species:S:1:pos:R:3:initial_magmoms:R:1 pbc="T T T"
Si      -1.82535966      -0.77880861       1.20053638       0.00000000
Si      -0.86659542       1.52422272      -1.55260298       0.00000000
Si       0.69357933      -1.85070690      -1.26202971       0.00000000
Si       1.17594252       0.90088587       1.83785603       0.00000000
Si      -2.09737008      -0.08521299      -2.74018430       0.00000000
Si      -2.86513407       1.38031686       1.56925454       0.00000000
Si      -0.61196643      -2.04100668       2.84817765       0.00000000
Si       2.82719466      -1.26895842      -1.91993926       0.00000000
Si      -0.56159775      -1.73022606      -3.20542626       0.00000000
Si       1.06194510       2.31653574      -2.69254424       0.00000000
