10
Lattice="16.28999089631971 0.0 0.0 0.0 16.28999089631971 0.0 0.0 0.0 34.54679606040008" Properties=species:S:1:pos:R:3:initial_magmoms:R:1 pbc="T T T"
Si       1.82535966       0.77880861      -1.20053638       0.00000000
Si      -1.83754458      -1.19558826      -0.89939179       0.00000000
Si       1.21339323      -1.26219807       1.64764127       0.00000000
Si      -1.03977441       2.15912547       0.36871816       0.00000000
Si      -2.84999740      -0.44184996       1.22575556       0.00000000
Si       2.18049795       0.60737265       2.62082505       0.00000000
Si       3.00130218       1.67969448       0.63731965       0.00000000
Si      -0.61434477      -3.23749808      -1.49722443       0.00000000
Si      -1.60075314      -0.28567773       3.25990659       0.00000000
Si      -2.27040246       0.11648979      -2.84797037       0.00000000
