10
Lattice="16.28999089631971 0.0 0.0 0.0 16.28999089631971 0.0 0.0 0.0 34.54679606040008" Properties=species:S:1:pos:R:3:initial_magmoms:R:1 pbc="T T T"
Si       1.32720169       0.92911644       1.74558149       0.00000000
Si       0.03201311      -2.35531620       0.45708891       0.00000000
Si      -2.19722845       0.96715359       0.26100119       0.00000000
Si       1.15263805       0.56951469      -2.10452290       0.00000000
Si      -1.15088917      -0.58256298       3.34603180       0.00000000
Si      -3.30061531      -0.18217107      -1.46951789       0.00000000
Si       3.32559373       1.50622227       0.65283117       0.00000000
Si       2.74472491       2.16112914      -1.48198929       0.00000000
Si      -0.96998872      -3.39186212      -1.42705985       0.00000000
Si      -1.43145184      -2.70277883       2.32852445       0.00000000
