10
Lattice="16.28999089631971 0.0 0.0 0.0 16.28999089631971 0.0 0.0 0.0 34.54679606040008" Properties=species:S:1:pos:R:3:initial_magmoms:R:1 pbc="T T T"
Si      -0.88400943      -0.26547536      -2.13278219       0.00000000
Si       2.19439332       0.59645998      -0.53399013       0.00000000
Si      -1.46618145       1.52248946       1.00762696       0.00000000
Si       0.46361340      -2.17650431       0.85499913       0.00000000
Si      -0.16063569       1.71278924      -3.10258039       0.00000000
Si      -0.92286108      -3.46370753      -0.52756442       0.00000000
Si       0.68844798      -1.74582929      -3.12089021       0.00000000
Si       2.80305288      -1.13827745      -2.10390106       0.00000000
Si       3.45892086       0.65960979       1.44098222       0.00000000
Si      -3.12205995      -2.21907008      -0.56325128       0.00000000
