10
Lattice="16.28999089631971 0.0 0.0 0.0 16.28999089631971 0.0 0.0 0.0 34.54679606040008" Properties=species:S:1:pos:R:3:initial_magmoms:R:1 pbc="T T T"
Si       1.59208686       1.59161445       0.62253361       0.00000000
Si      -1.56964901       0.90552852      -1.47988193       0.00000000
Si      -1.15263805      -0.56951469       2.10452290       0.00000000
Si       1.99153395      -0.91253322      -1.45231357       0.00000000
Si      -3.02703128      -1.01473668      -1.49155875       0.00000000
Si       3.28261419       0.98277570      -0.91497240       0.00000000
Si       2.17295568       0.93670758       2.75735407       0.00000000
Si      -1.61558356      -2.95138052      -1.38346177       0.00000000
Si       0.62649711       3.68580798       0.83382194       0.00000000
Si       0.17456364       0.35960175       3.85010439       0.00000000
