10
Lattice="16.28999089631971 0.0 0.0 0.0 16.28999089631971 0.0 0.0 0.0 34.54679606040008" Properties=species:S:1:pos:R:3:initial_magmoms:R:1 pbc="T T T"
Si      -0.63048816      -1.80993303       1.35143687       0.00000000
Si       1.19933496      -1.48502898      -1.47618542       0.00000000
Si      -1.76026482       1.13520123      -1.25287481       0.00000000
Si       1.61538156       1.23253398       1.40481170       0.00000000
Si      -1.57284837       3.09475791       0.78939473       0.00000000
Si       2.67527412      -2.42589051       0.24580059       0.00000000
Si      -0.51175035       2.37669471      -2.87204950       0.00000000
Si       3.52054593      -0.41339133       1.34518390       0.00000000
Si       2.48661963      -0.22918401      -2.96656958       0.00000000
Si      -2.32101549      -1.20109428       2.88894289       0.00000000
