10
Lattice="16.28999089631971 0.0 0.0 0.0 16.28999089631971 0.0 0.0 0.0 34.54679606040008" Properties=species:S:1:pos:R:3:initial_magmoms:R:1 pbc="T T T"
Si       1.28728467       1.25584497      -1.49038416       0.00000000
Si      -1.19933496       1.48502898       1.47618542       0.00000000
Si      -1.48082616      -1.36961433      -1.37306318       0.00000000
Si       1.47593916      -0.94086153       1.72198601       0.00000000
Si      -1.82982312      -0.32490405       2.82762229       0.00000000
Si       2.53382805      -0.20020410      -2.80461411       0.00000000
Si      -0.21712941       2.54148435      -2.79877570       0.00000000
Si       2.32121097       1.07163765       2.82136932       0.00000000
Si       2.56271022       2.83411791      -0.16143727       0.00000000
Si      -2.95959978       2.62023021       0.22331061       0.00000000
