10
Lattice="16.28999089631971 0.0 0.0 0.0 16.28999089631971 0.0 0.0 0.0 34.54679606040008" Properties=species:S:1:pos:R:3:initial_magmoms:R:1 pbc="T T T"
Si       1.11117348       1.62378720      -1.33699630       0.00000000
Si      -0.71273637       1.04414013       2.10915217       0.00000000
Si      -1.61538156      -1.23253398      -1.40481170       0.00000000
Si       1.90516437      -1.64592531      -0.05962780       0.00000000
Si       2.14666362       0.11655495      -3.04243439       0.00000000
Si      -0.19621305      -0.68678640       3.66659170       0.00000000
Si      -3.18822993       1.86222393      -0.61541697       0.00000000
Si      -3.08846997       1.29569031       1.71946409       0.00000000
Si      -2.24586972      -3.04246701      -0.05337483       0.00000000
Si       3.59847729      -0.45612000      -1.24866009       0.00000000
