10
Lattice="16.28999089631971 0.0 0.0 0.0 16.28999089631971 0.0 0.0 0.0 34.54679606040008" Properties=species:S:1:pos:R:3:initial_magmoms:R:1 pbc="T T T"
Si      -0.04180014       1.86740415      -1.48440756       0.00000000
Si       2.06633763      -0.89191008      -0.84508420       0.00000000
Si       0.41153427       0.90503982       2.24519753       0.00000000
Si      -1.71491346      -1.78496046      -0.20600266       0.00000000
Si      -1.15393473       0.65984274      -3.09719109       0.00000000
Si       1.09923291      -2.76148080      -1.81826799       0.00000000
Si      -0.38449287      -3.73263033      -0.32076718       0.00000000
Si      -0.11416032      -1.49928273      -3.46590925       0.00000000
Si      -1.70153937       1.51066944       3.18221080       0.00000000
Si       3.56744484      -1.51052283       0.82183419       0.00000000
