10
Lattice="16.28999089631971 0.0 0.0 0.0 16.28999089631971 0.0 0.0 0.0 34.54679606040008" Properties=species:S:1:pos:R:3:initial_magmoms:R:1 pbc="T T T"
Si       0.40436667       1.74226437      -1.48005466       0.00000000
Si       1.49850081      -1.79185113      -0.41179804       0.00000000
Si      -2.06969337      -0.94869702      -0.75671344       0.00000000
Si       1.62598635       0.88211979       2.36694051       0.00000000
Si      -1.67045805      -2.65870719       0.87856006       0.00000000
Si      -1.85437215      -0.92595618       2.65740292       0.00000000
Si       2.50791066       2.54674602      -0.72278847       0.00000000
Si       0.48062016      -3.63654702       0.77284681       0.00000000
Si      -0.13105305       0.17141967       3.87473769       0.00000000
Si       3.87366426      -1.05221997      -0.23405467       0.00000000
