10
Lattice="16.28999089631971 0.0 0.0 0.0 16.28999089631971 0.0 0.0 0.0 34.54679606040008" Properties=species:S:1:pos:R:3:initial_magmoms:R:1 pbc="T T T"
Si       1.35716877       1.35739683      -1.35689527       0.00000000
Si      -1.35744570       1.35729909       1.35741347       0.00000000
Si       1.35731538      -1.35755973       1.35765530       0.00000000
Si      -1.36032903      -1.35713619      -1.35803531       0.00000000
Si      -2.71103393      -0.00122175      -2.71513786       0.00000000
Si      -2.71411274      -0.00024435       2.71434328       0.00000000
Si       2.71482624       0.00087966       2.71382508       0.00000000
Si       0.00048870      -2.71415835       2.71475785       0.00000000
Si       0.00403992       2.71083519      -2.71821253       0.00000000
Si      -0.00081450       2.71433754       2.71496513       0.00000000
