10
Lattice="16.28999089631971 0.0 0.0 0.0 16.28999089631971 0.0 0.0 0.0 34.54679606040008" Properties=species:S:1:pos:R:3:initial_magmoms:R:1 pbc="T T T"
Si       1.35272160      -1.35511623      -1.35945173       0.00000000
Si       1.36308204       1.34405532       1.36446102       0.00000000
Si      -1.36291914       1.35834165      -1.35831169       0.00000000
Si      -1.37626065      -1.34586351       1.35983175       0.00000000
Si      -0.07695396       2.58512526       2.74232620       0.00000000
Si       2.70427032      -2.71169856       0.00086367       0.00000000
Si       2.71010214       0.00215028      -2.71575970       0.00000000
Si       2.70961344       2.71927341      -0.00386924       0.00000000
Si      -0.00478926      -2.71355562      -2.71562152       0.00000000
Si      -0.00465894       2.71681362      -2.71579425       0.00000000
