10
Lattice="16.28999089631971 0.0 0.0 0.0 16.28999089631971 0.0 0.0 0.0 34.54679606040008" Properties=species:S:1:pos:R:3:initial_magmoms:R:1 pbc="T T T"
Si      -2.13547239      -0.51168519      -0.69394188       0.00000000
Si       0.09975996      -0.56653362       2.33488106       0.00000000
Si       1.28555793       1.74742830      -1.04017006       0.00000000
Si      -0.18741645      -1.95955668      -2.04226954       0.00000000
Si      -0.72866799       1.51501887       3.01514240       0.00000000
Si       1.57284837      -3.09475791      -0.78939473       0.00000000
Si      -1.71375687      -2.20165866       2.31083648       0.00000000
Si       2.73409731       0.50445243      -2.48664522       0.00000000
Si       3.18822993      -1.86222393       0.61541697       0.00000000
Si       2.47549356      -0.81808380       2.72456914       0.00000000
