10
Lattice="16.28999089631971 0.0 0.0 0.0 16.28999089631971 0.0 0.0 0.0 34.54679606040008" Properties=species:S:1:pos:R:3:initial_magmoms:R:1 pbc="T T T"
Si      -2.04175017      -1.01830419      -0.12644134       0.00000000
Si      -0.46371766       2.28744180      -0.18731283       0.00000000
Si       1.24924426       0.15617223       2.03415104       0.00000000
Si       1.01245282      -0.75373830      -2.12514735       0.00000000
Si       2.84999740       0.44184996      -1.22575556       0.00000000
Si      -1.89849591      -0.95333967      -2.47327561       0.00000000
Si       1.81022299       2.60097543      -0.85703740       0.00000000
Si       2.57966485      -1.79149764       1.91938651       0.00000000
Si      -1.94801751      -3.30399386       0.28718768       0.00000000
Si      -1.48222125       3.13738884       1.81153136       0.00000000
