10
Lattice="16.28999089631971 0.0 0.0 0.0 16.28999089631971 0.0 0.0 0.0 34.54679606040008" Properties=species:S:1:pos:R:3:initial_magmoms:R:1 pbc="T T T"
Si       1.48372578       0.97114953      -1.49750081       0.00000000
Si      -0.86775201      -2.01343001      -0.81599578       0.00000000
Si      -1.33042059       1.94766987       0.11476452       0.00000000
Si       0.82661976      -0.45193510       2.20477776       0.00000000
Si      -2.35975311       1.38138060       2.21489997       0.00000000
Si       0.42253002      -3.50440484       0.46392918       0.00000000
Si      -2.57966485       1.79149764      -1.91938651       0.00000000
Si      -0.41765931       1.15470525       3.55642191       0.00000000
Si       0.38449287       3.73263033       0.32076718       0.00000000
Si      -3.13096732      -2.09033510       0.14495844       0.00000000
