10
Lattice="16.28999089631971 0.0 0.0 0.0 16.28999089631971 0.0 0.0 0.0 34.54679606040008" Properties=species:S:1:pos:R:3:initial_magmoms:R:1 pbc="T T T"
Si       1.35368271      -1.35855342       1.35900262       0.00000000
Si      -1.35920502       1.35674499       1.35813895       0.00000000
Si       1.35027810       1.34149870      -1.39189810       0.00000000
Si      -1.35055503      -1.35889551      -1.37981017       0.00000000
Si      -0.13844871       2.61468251      -2.77100006       0.00000000
Si       2.71306692      -2.71326240      -0.00024183       0.00000000
Si       2.71138905       2.71496538      -0.00507838       0.00000000
Si       2.71215468       0.00022806       2.71537969       0.00000000
Si      -2.71502172       2.71381856      -0.00241828       0.00000000
Si      -0.00206883      -2.71482624       2.71572516       0.00000000
