10
Lattice="16.28999089631971 0.0 0.0 0.0 16.28999089631971 0.0 0.0 0.0 34.54679606040008" Properties=species:S:1:pos:R:3:initial_magmoms:R:1 pbc="T T T"
Si       1.35731538      -1.35746199       1.35724074       0.00000000
Si       1.35780408       1.35651693      -1.35772439       0.00000000
Si      -1.35821133       1.35765385       1.35734438       0.00000000
Si      -1.35897696      -1.35773892      -1.35800077       0.00000000
Si      -0.00100998       2.71308062       2.71396327       0.00000000
Si      -2.71624021       0.00578295      -2.71296141       0.00000000
Si       2.71466334       2.71486112      -0.00020728       0.00000000
Si      -2.71514227      -0.00013032       2.71455056       0.00000000
Si       2.71551042      -0.00120546       2.71437783       0.00000000
Si       2.71494027      -2.71505430      -0.00013819       0.00000000
