10
Lattice="16.28999089631971 0.0 0.0 0.0 16.28999089631971 0.0 0.0 0.0 34.54679606040008" Properties=species:S:1:pos:R:3:initial_magmoms:R:1 pbc="T T T"
Si      -1.68122574      -0.82552833      -1.59799749       0.00000000
Si       0.97326234       1.80204867      -1.54624636       0.00000000
Si      -1.51954749       0.09151722       2.11865255       0.00000000
Si       2.05910487      -1.70600283       0.08588338       0.00000000
Si      -0.24118974      -2.06659827      -2.97586268       0.00000000
Si      -3.00597741      -2.10588975       0.00079458       0.00000000
Si       0.84230703      -3.35350827       1.72768624       0.00000000
Si       2.51778240       2.22422587       1.91520635       0.00000000
Si       1.24884027      -3.33332496      -1.56345068       0.00000000
Si       2.97662283       2.48050015      -0.39604469       0.00000000
