10
Lattice="16.28999089631971 0.0 0.0 0.0 16.28999089631971 0.0 0.0 0.0 34.54679606040008" Properties=species:S:1:pos:R:3:initial_magmoms:R:1 pbc="T T T"
Si      -0.25839198       2.21754208       0.84397870       0.00000000
Si       1.51954749      -0.09151722      -2.11865255       0.00000000
Si      -2.45192193      -0.87340464      -0.30242282       0.00000000
Si       0.85128282      -1.16302455       2.23044604       0.00000000
Si      -1.48642992      -2.19740697      -2.11785797       0.00000000
Si       1.42995249       0.77035410       3.45063956       0.00000000
Si      -0.16167825      -0.91704555      -3.71665004       0.00000000
Si       2.04099039       3.18042443       0.78175988       0.00000000
Si      -0.62235945       1.99639458       3.24629515       0.00000000
Si      -0.01407456      -3.78418329      -1.06587289       0.00000000
