10
Lattice="16.28999089631971 0.0 0.0 0.0 16.28999089631971 0.0 0.0 0.0 34.54679606040008" Properties=species:S:1:pos:R:3:initial_magmoms:R:1 pbc="T T T"
Si       0.58373586       0.34194339      -2.21172167       0.00000000
Si      -2.37208464       0.07993503      -0.03337222       0.00000000
Si       0.60196437      -1.79452269       1.46350674       0.00000000
Si      -0.61509411       2.37256261      -1.64615575       0.00000000
Si       1.67316219      -0.33021459       3.17959012       0.00000000
Si      -0.95695605      -1.11213459      -3.37156190       0.00000000
Si      -2.93171130       1.68829627      -1.68184261       0.00000000
Si      -2.87990910       1.26003771       2.10465214       0.00000000
Si       1.76471199      -3.65102883       0.35141021       0.00000000
Si      -0.41199039       4.09005152       0.20890459       0.00000000
