10
Lattice="16.28999089631971 0.0 0.0 0.0 16.28999089631971 0.0 0.0 0.0 34.54679606040008" Properties=species:S:1:pos:R:3:initial_magmoms:R:1 pbc="T T T"
Si      -0.48104370       1.93908015       1.15023622       0.00000000
Si      -1.10983770      -0.14297733      -2.03159457       0.00000000
Si      -0.88842402      -1.84105507       1.19490525       0.00000000
Si       2.15278866      -0.97389765      -0.23940943       0.00000000
Si       1.45173222      -2.70062413      -1.72886083       0.00000000
Si      -3.24345303      -0.72472581      -1.37368502       0.00000000
Si      -0.27976446      -3.57579251      -0.37500568       0.00000000
Si       2.43823833      -1.71163102       2.04451508       0.00000000
Si       0.37610352      -1.77790526       3.16987759       0.00000000
Si       0.18158463      -1.54785462      -3.40707603       0.00000000
