10
Lattice="16.28999089631971 0.0 0.0 0.0 16.28999089631971 0.0 0.0 0.0 34.54679606040008" Properties=species:S:1:pos:R:3:initial_magmoms:R:1 pbc="T T T"
Si      -2.19439332      -0.59645998       0.53399013       0.00000000
Si       1.26452754       0.06314981       1.97497234       0.00000000
Si       0.88842402       1.84105507      -1.19490525       0.00000000
Si       0.60865956      -1.73473743      -1.56991093       0.00000000
Si       3.32666235       0.12942405       0.84960983       0.00000000
Si       3.04121268       0.86715743      -1.43431468       0.00000000
Si      -1.73077992      -2.77296429       1.38898926       0.00000000
Si      -3.07840275      -0.86193534      -1.59879207       0.00000000
Si      -0.22141368       1.69807774      -3.22649982       0.00000000
Si      -2.35502901       1.11632926      -2.56859027       0.00000000
