10
Lattice="16.28999089631971 0.0 0.0 0.0 16.28999089631971 0.0 0.0 0.0 34.54679606040008" Properties=species:S:1:pos:R:3:initial_magmoms:R:1 pbc="T T T"
Si      -1.37331216       1.30036554       1.41340004       0.00000000
Si      -1.05616215      -1.82000025      -1.10054753       0.00000000
Si       1.35319401      -1.40108661       1.40910932       0.00000000
Si       0.98075574       1.68484212      -1.54677980       0.00000000
Si      -2.71875213       2.58678684      -0.03055320       0.00000000
Si      -0.96171273       3.29748696      -1.53835038       0.00000000
Si      -0.00356751       2.66602140       2.77362562       0.00000000
Si       2.78119170       2.68822467      -0.12591623       0.00000000
Si       2.71107954      -0.05102028       2.77552569       0.00000000
Si      -2.71782360      -0.05080851       2.77787488       0.00000000
