10
Lattice="16.28999089631971 0.0 0.0 0.0 16.28999089631971 0.0 0.0 0.0 34.54679606040008" Properties=species:S:1:pos:R:3:initial_magmoms:R:1 pbc="T T T"
Si      -1.35666378       1.35711990      -1.35751711       0.00000000
Si       1.35790182       1.35677781       1.35789712       0.00000000
Si       1.35808101      -1.35751086      -1.35772439       0.00000000
Si      -1.35870003      -1.35840681       1.35762075       0.00000000
Si      -2.71427238       2.71432125       0.00017273       0.00000000
Si      -0.00071676      -2.71511946      -2.71351416       0.00000000
Si      -2.71386513      -0.00006516       2.71482694       0.00000000
Si      -2.71484253      -0.00260640      -2.71455056       0.00000000
Si       0.00029322       2.71494027      -2.71458511       0.00000000
Si      -2.71430496      -2.71534752      -0.00017273       0.00000000
