10
Lattice="16.28999089631971 0.0 0.0 0.0 16.28999089631971 0.0 0.0 0.0 34.54679606040008" Properties=species:S:1:pos:R:3:initial_magmoms:R:1 pbc="T T T"
Si       1.69331292       1.18980531      -1.18903229       0.00000000
Si      -0.84527181      -2.01249918      -1.09938331       0.00000000
Si       1.28933721      -0.52859421       2.01148832       0.00000000
Si      -1.90516437       1.64592531       0.05962780       0.00000000
Si      -0.86690493      -0.94310955       2.94166133       0.00000000
Si       1.44909324      -2.94559038      -0.90129187       0.00000000
Si       0.24149925       1.76248026      -2.98280659       0.00000000
Si      -2.42823627      -2.12160960       1.45891201       0.00000000
Si      -0.79399089       3.26971251      -1.27736850       0.00000000
Si       2.03668983      -2.72551248       1.43009997       0.00000000
