10
Lattice="16.28999089631971 0.0 0.0 0.0 16.28999089631971 0.0 0.0 0.0 34.54679606040008" Properties=species:S:1:pos:R:3:initial_magmoms:R:1 pbc="T T T"
Si      -1.49850081       1.79185113       0.41179804       0.00000000
Si      -0.41228361      -1.57240854      -1.76827874       0.00000000
Si      -1.01788065      -1.84469589       1.18464485       0.00000000
Si       2.37516345       0.73963116       0.17774337       0.00000000
Si      -3.16895886      -0.86685606       1.29035810       0.00000000
Si       2.06995401       1.06132608       2.77030912       0.00000000
Si       3.30442650      -1.18063404      -0.90719937       0.00000000
Si       1.77510501      -1.74542463      -2.64030946       0.00000000
Si      -3.56819418       0.84315411      -0.34491540       0.00000000
Si      -1.22098437      -3.56218480      -0.67041550       0.00000000
