10
Lattice="16.28999089631971 0.0 0.0 0.0 16.28999089631971 0.0 0.0 0.0 34.54679606040008" Properties=species:S:1:pos:R:3:initial_magmoms:R:1 pbc="T T T"
Si      -1.34672851      -1.33758819       1.36477540       0.00000000
Si      -1.33965865       1.17382482      -1.53516720       0.00000000
Si       1.36862064       1.37611404       1.35959337       0.00000000
Si       1.33019253      -1.44816471      -1.34424422       0.00000000
Si       0.54972234       1.83433545      -2.78230865       0.00000000
Si       2.36159388       0.19934073      -2.66219659       0.00000000
Si      -2.69838053      -2.69360037      -0.02535045       0.00000000
Si      -2.68545162       2.71142163      -0.00733083       0.00000000
Si       0.00851967      -2.69767287       2.72015060       0.00000000
Si      -2.70474619       0.01718595       2.72118701       0.00000000
