10
Lattice="16.28999089631971 0.0 0.0 0.0 16.28999089631971 0.0 0.0 0.0 34.54679606040008" Properties=species:S:1:pos:R:3:initial_magmoms:R:1 pbc="T T T"
Si       1.35213516      -1.35822762      -1.35820805       0.00000000
Si      -1.35721764      -1.35708732       1.35616978       0.00000000
Si       1.35729909       1.35744570       1.35641161       0.00000000
Si      -1.35666378       1.35907470      -1.35976265       0.00000000
Si       2.71164969       0.00513135      -2.71085060       0.00000000
Si      -2.71466334       0.00043983       2.71361780       0.00000000
Si       0.00058644      -2.71480995       2.71358325       0.00000000
Si       0.00014661       2.71507059       2.71334143       0.00000000
Si       2.71508688       0.00003258       2.71382508       0.00000000
Si       2.71477737       2.71437012      -0.00196917       0.00000000
