10
Lattice="16.28999089631971 0.0 0.0 0.0 16.28999089631971 0.0 0.0 0.0 34.54679606040008" Properties=species:S:1:pos:R:3:initial_magmoms:R:1 pbc="T T T"
Si       1.33965865      -1.17382482       1.53516720       0.00000000
Si       1.88938099       0.66051063      -1.24714146       0.00000000
Si      -1.30279568      -1.26506511      -1.56203568       0.00000000
Si      -1.34579297       1.53759681       1.52783636       0.00000000
Si      -1.97256166       0.52090533      -2.97009478       0.00000000
Si      -2.70807145      -2.57439015      -0.04120399       0.00000000
Si       2.66985118      -2.62198953       0.19092298       0.00000000
Si       2.63321497       2.73800691      -0.01490695       0.00000000
Si      -0.00706986      -2.51141301       2.89994259       0.00000000
Si       1.37285767      -0.39159531      -3.60413248       0.00000000
