10
Lattice="16.28999089631971 0.0 0.0 0.0 16.28999089631971 0.0 0.0 0.0 34.54679606040008" Properties=species:S:1:pos:R:3:initial_magmoms:R:1 pbc="T T T"
Si      -0.41130621      -2.22466014       0.82356153       0.00000000
Si      -2.24451765       0.43236918      -0.93176216       0.00000000
Si       0.15620481       0.17855469      -2.46674626       0.00000000
Si      -0.26189433       0.14095737       2.46170242       0.00000000
Si       2.62433529       0.27469827      -0.77574874       0.00000000
Si      -2.14883019      -0.96272271      -2.88662825       0.00000000
Si       1.03272084      -3.71802960      -0.29886450       0.00000000
Si      -3.77799309      -1.08752040       0.02995209       0.00000000
Si      -2.51485020      -3.02914179       0.06629534       0.00000000
Si      -0.12256596       2.47261023      -3.08834711       0.00000000
