10
Lattice="16.28999089631971 0.0 0.0 0.0 16.28999089631971 0.0 0.0 0.0 34.54679606040008" Properties=species:S:1:pos:R:3:initial_magmoms:R:1 pbc="T T T"
Si      -0.61823808       0.34197597       2.30586174       0.00000000
Si       1.76624325       1.55105235      -0.58370299       0.00000000
Si      -1.98047304       0.29739024      -1.55008106       0.00000000
Si       1.00853019      -2.06839017      -1.27401746       0.00000000
Si      -0.05517423      -2.82796029       1.03540260       0.00000000
Si       1.83941793       2.22407370       1.65289238       0.00000000
Si      -0.63355068       2.69534340       1.85488761       0.00000000
Si      -0.38797893       1.27379655      -3.20110791       0.00000000
Si      -3.19727088      -1.35011520       0.09172179       0.00000000
Si      -2.88561060      -0.54734400       2.30817638       0.00000000
