10
Lattice="16.28999089631971 0.0 0.0 0.0 16.28999089631971 0.0 0.0 0.0 34.54679606040008" Properties=species:S:1:pos:R:3:initial_magmoms:R:1 pbc="T T T"
Si       0.93493197      -1.46165283       1.53156397       0.00000000
Si       1.73102427       1.16640263      -1.05502519       0.00000000
Si      -1.21929021      -1.73890863      -1.08584095       0.00000000
Si      -1.89426636       1.47118804       0.08325783       0.00000000
Si       0.30711537       2.37455650      -2.50174218       0.00000000
Si      -2.42385426      -0.34819875      -2.51196804       0.00000000
Si      -2.35310679       1.21491376       2.39450887       0.00000000
Si      -0.83131128      -3.01270518       2.11526696       0.00000000
Si      -1.10749194       3.56489450      -1.01349992       0.00000000
Si       2.40803667       3.02427827       0.29485707       0.00000000
