10
Lattice="16.28999089631971 0.0 0.0 0.0 16.28999089631971 0.0 0.0 0.0 34.54679606040008" Properties=species:S:1:pos:R:3:initial_magmoms:R:1 pbc="T T T"
Si      -1.35757602       1.35681039      -1.35772439       0.00000000
Si       1.35799956       1.35775521       1.35689527       0.00000000
Si       1.35713619      -1.35795069      -1.35793167       0.00000000
Si      -1.35942331      -1.35811359       1.35734438       0.00000000
Si      -0.00179190       2.71401174       2.71489603       0.00000000
Si      -2.71463462       2.71438641      -0.00100186       0.00000000
Si       2.71482624       2.71435383      -0.00020728       0.00000000
Si       2.71425609      -0.00257382      -2.71493058       0.00000000
Si       2.71523349      -0.00003258       2.71444692       0.00000000
Si       2.71479366      -2.71531494      -0.00055275       0.00000000
