10
Lattice="16.28999089631971 0.0 0.0 0.0 16.28999089631971 0.0 0.0 0.0 34.54679606040008" Properties=species:S:1:pos:R:3:initial_magmoms:R:1 pbc="T T T"
Si       1.09833696       1.39272495      -1.45037346       0.00000000
Si       1.34684091      -1.33253642       1.34738107       0.00000000
Si      -1.38148974       1.38927147       1.32984511       0.00000000
Si      -0.87832422      -1.80095302      -1.38297262       0.00000000
Si      -0.55063458       0.36741606      -3.00010905       0.00000000
Si       1.96248888      -0.23057192      -2.90482894       0.00000000
Si      -0.02668302      -2.68590727       2.69329045       0.00000000
Si       2.66805765      -2.71690714      -0.01492768       0.00000000
Si       2.68960932       0.02374105       2.69712515       0.00000000
Si       2.70391194       2.67986301      -0.24132678       0.00000000
