10
Lattice="16.28999089631971 0.0 0.0 0.0 16.28999089631971 0.0 0.0 0.0 34.54679606040008" Properties=species:S:1:pos:R:3:initial_magmoms:R:1 pbc="T T T"
Si      -1.60557498      -1.28713806      -1.20904668       0.00000000
Si       1.34934957      -1.29303504       1.55102073       0.00000000
Si       1.40527577       1.30932504      -1.52083169       0.00000000
Si      -1.36150191       1.40941080       1.54629127       0.00000000
Si       2.70807145       2.57439015       0.04120399       0.00000000
Si       2.73795545      -2.61850510       0.07023022       0.00000000
Si      -2.70391194      -2.67986301       0.24132678       0.00000000
Si      -2.65740399       2.79871974       0.03614633       0.00000000
Si      -0.01430262      -2.65612197       2.93845193       0.00000000
Si       2.70100159       0.06297714       2.94114658       0.00000000
