10
Lattice="16.28999089631971 0.0 0.0 0.0 16.28999089631971 0.0 0.0 0.0 34.54679606040008" Properties=species:S:1:pos:R:3:initial_magmoms:R:1 pbc="T T T"
Si       1.35547461       1.35726901       1.35610069       0.00000000
Si      -1.35754344      -1.35693074       1.35627342       0.00000000
Si       1.35720135      -1.35701219      -1.35741347       0.00000000
Si      -1.35700587       1.35727715      -1.35782803       0.00000000
Si      -0.00003258       2.71538097       2.70995584       0.00000000
Si       2.71417464      -0.00121178      -2.71375599       0.00000000
Si      -2.71417464       2.71461534      -0.00003455       0.00000000
Si       2.71487264       2.71441986       0.00031092       0.00000000
Si      -2.71357191       0.00014311       2.71603608       0.00000000
Si      -2.71461447      -0.00069649      -2.71503422       0.00000000
