10
Lattice="16.28999089631971 0.0 0.0 0.0 16.28999089631971 0.0 0.0 0.0 34.54679606040008" Properties=species:S:1:pos:R:3:initial_magmoms:R:1 pbc="T T T"
Si       1.35705474       1.35669636       1.35699891       0.00000000
Si      -1.35698958       1.35536058      -1.35983175       0.00000000
Si      -1.35798327      -1.35813640       1.35651525       0.00000000
Si       1.35622395      -1.36023618      -1.35896808       0.00000000
Si       0.01345554      -2.71651364      -2.70871215       0.00000000
Si       2.71351048       2.71363707       0.00013819       0.00000000
Si      -0.00061902       2.71378368       2.71410146       0.00000000
Si       2.71389524      -0.00099369       2.71465420       0.00000000
Si      -2.71560816       2.71336014      -0.00176189       0.00000000
Si      -2.71515204      -0.00079821       2.71430874       0.00000000
