10
Lattice="16.28999089631971 0.0 0.0 0.0 16.28999089631971 0.0 0.0 0.0 34.54679606040008" Properties=species:S:1:pos:R:3:initial_magmoms:R:1 pbc="T T T"
Si      -1.10338686      -1.14932466      -1.73051908       0.00000000
Si      -0.12007359       2.22793443      -0.76780297       0.00000000
Si      -0.70698600      -0.18471231       2.28247354       0.00000000
Si       2.19722845      -0.96715359      -0.26100119       0.00000000
Si       1.04633928      -1.54971657       3.08503061       0.00000000
Si      -0.92043387      -3.42540323      -1.26202971       0.00000000
Si       2.02009262       3.23449353      -0.09179089       0.00000000
Si       3.52443014      -0.03803715       1.48458030       0.00000000
Si      -2.45876373       2.92825782      -0.28159109       0.00000000
Si       0.33334227       2.32701021      -3.10109488       0.00000000
