10
Lattice="16.28999089631971 0.0 0.0 0.0 16.28999089631971 0.0 0.0 0.0 34.54679606040008" Properties=species:S:1:pos:R:3:initial_magmoms:R:1 pbc="T T T"
Si      -0.14325426      -0.06496452       2.34683426       0.00000000
Si      -1.75332528       1.36500426      -0.80255707       0.00000000
Si      -0.28056267      -2.12021585      -1.01750735       0.00000000
Si       2.91094874       0.19960137       0.34812826       0.00000000
Si       1.89849591       0.95333967       2.47327561       0.00000000
Si       2.47809086       1.51167942      -1.60045032       0.00000000
Si       1.15088917       0.58256298      -3.34603180       0.00000000
Si       1.18290228      -1.77275322      -2.88894289       0.00000000
Si      -1.04633928       1.54971657      -3.08503061       0.00000000
Si      -0.04952160      -2.35065419       2.76046328       0.00000000
