10
Lattice="16.28999089631971 0.0 0.0 0.0 16.28999089631971 0.0 0.0 0.0 34.54679606040008" Properties=species:S:1:pos:R:3:initial_magmoms:R:1 pbc="T T T"
Si       1.35645574       1.35694071      -1.35686072       0.00000000
Si      -1.35705474      -1.35669636      -1.35699891       0.00000000
Si      -1.35767376       1.35708732       1.35710255       0.00000000
Si       1.35684050      -1.35769005       1.35765530       0.00000000
Si      -2.71290402       0.00032580       2.71479239       0.00000000
Si       2.71447342       0.00216657      -2.71327233       0.00000000
Si       2.71293727      -0.00019548       2.71489603       0.00000000
Si      -0.00255753      -2.71484090       2.71344507       0.00000000
Si       2.71429749      -2.71499728       0.00000000       0.00000000
Si       2.71478456       2.71472850      -0.00017273       0.00000000
