10
Lattice="16.28999089631971 0.0 0.0 0.0 16.28999089631971 0.0 0.0 0.0 34.54679606040008" Properties=species:S:1:pos:R:3:initial_magmoms:R:1 pbc="T T T"
Si      -1.35523026      -1.35676152       1.35768984       0.00000000
Si       1.35767376      -1.35708732      -1.35710255       0.00000000
Si      -1.35799956       1.35835794      -1.35730983       0.00000000
Si       1.35788553       1.35852084       1.35786258       0.00000000
Si      -0.00039096      -2.71381626       2.71019767       0.00000000
Si       0.00061902      -2.71378368      -2.71410146       0.00000000
Si       2.71412950      -0.00014661      -2.71396327       0.00000000
Si      -2.71453302      -2.71458189       0.00020728       0.00000000
Si       2.71451426      -2.71477737       0.00055275       0.00000000
Si      -2.71394658      -0.00224802       2.71555242       0.00000000
