10
Lattice="16.28999089631971 0.0 0.0 0.0 16.28999089631971 0.0 0.0 0.0 34.54679606040008" Properties=species:S:1:pos:R:3:initial_magmoms:R:1 pbc="T T T"
Si      -0.45341586      -0.09907578       2.33329191       0.00000000
Si       1.44687521      -1.81912059      -0.74431114       0.00000000
Si      -1.86802317      -0.25435206      -1.64494661       0.00000000
Si       1.68685786       1.86575886       0.17608512       0.00000000
Si       0.08633700       0.52329996      -3.20179885       0.00000000
Si       1.68675035       0.90748332       3.00930399       0.00000000
Si       1.76428260      -1.20694239      -3.08720706       0.00000000
Si      -0.01050705      -3.73938579      -0.75598796       0.00000000
Si      -0.33334227      -2.32701021       3.10109488       0.00000000
Si       0.35917821       3.73329333       1.29357095       0.00000000
