10
Lattice="16.28999089631971 0.0 0.0 0.0 16.28999089631971 0.0 0.0 0.0 34.54679606040008" Properties=species:S:1:pos:R:3:initial_magmoms:R:1 pbc="T T T"
Si       1.50343735      -0.51802200      -1.73805028       0.00000000
Si       1.16196963      -1.03079862       1.78679584       0.00000000
Si       0.06626772       2.36670894       0.40015576       0.00000000
Si      -2.27263419      -0.76649337      -0.24597333       0.00000000
Si      -1.57784940       2.45941533       2.06244488       0.00000000
Si       3.43591028      -0.71726499       1.11707127       0.00000000
Si       3.55270958       0.43100082      -0.96658535       0.00000000
Si      -2.02613391      -2.90657583      -1.30172400       0.00000000
Si       0.70094471       0.51263001      -3.67598844       0.00000000
Si       0.14346603      -0.18085158       3.78564003       0.00000000
