10
Lattice="16.28999089631971 0.0 0.0 0.0 16.28999089631971 0.0 0.0 0.0 34.54679606040008" Properties=species:S:1:pos:R:3:initial_magmoms:R:1 pbc="T T T"
Si      -2.17391679       0.69745635      -0.55983114       0.00000000
Si       0.93121526       2.11357863       0.54480328       0.00000000
Si       1.01850360      -0.84994704      -1.99884419       0.00000000
Si      -0.79923627      -1.19408958       1.92121750       0.00000000
Si      -1.72131543       2.64026691      -1.72319515       0.00000000
Si      -3.09488823       1.65354903       1.42937449       0.00000000
Si      -0.14346603       0.18085158      -3.78564003       0.00000000
Si       1.37868364       2.06599554       2.87484779       0.00000000
Si      -3.24123759      -0.98126073      -1.78268477       0.00000000
Si      -0.69926454       3.82880160       0.00141642       0.00000000
