10
Lattice="16.28999089631971 0.0 0.0 0.0 16.28999089631971 0.0 0.0 0.0 34.54679606040008" Properties=species:S:1:pos:R:3:initial_magmoms:R:1 pbc="T T T"
Si       1.75358592       1.08742266       1.11061102       0.00000000
Si       1.55492937      -1.33358085      -1.21304233       0.00000000
Si      -0.74072259       1.51405776      -1.70488534       0.00000000
Si      -3.13455438      -0.53423055       0.06221881       0.00000000
Si      -0.04663827       2.06597925       2.49448735       0.00000000
Si      -2.20529133      -2.45449575      -1.02272392       0.00000000
Si      -0.04562829      -3.03617907      -1.82738835       0.00000000
Si       2.42335190      -0.69854778       2.51867012       0.00000000
Si       3.34348407      -1.62759906       0.36450345       0.00000000
Si       0.18024885       0.55796508      -3.69409097       0.00000000
