10
Lattice="16.28999089631971 0.0 0.0 0.0 16.28999089631971 0.0 0.0 0.0 34.54679606040008" Properties=species:S:1:pos:R:3:initial_magmoms:R:1 pbc="T T T"
Si      -1.35213516      -1.35381303      -1.37420322       0.00000000
Si       1.36193340       1.36379880      -1.37143948       0.00000000
Si       1.27747809      -1.45844370       1.36895211       0.00000000
Si      -1.29818268       1.48685346       1.37344319       0.00000000
Si       2.47182572       0.03205872       2.68155836       0.00000000
Si      -2.70844056      -2.70997182       0.00114004       0.00000000
Si       2.70532332       2.73012255       0.01640974       0.00000000
Si       2.72734252      -2.71063971      -0.00165825       0.00000000
Si       0.00403992      -2.70971118      -2.73158214       0.00000000
Si      -2.71313208       0.00509877      -2.73168578       0.00000000
