10
Lattice="16.28999089631971 0.0 0.0 0.0 16.28999089631971 0.0 0.0 0.0 34.54679606040008" Properties=species:S:1:pos:R:3:initial_magmoms:R:1 pbc="T T T"
Si       1.34147240      -0.66235140      -1.78859227       0.00000000
Si       0.24482241       2.35328598      -0.09942573       0.00000000
Si      -2.32973064      -0.34723764       0.34412083       0.00000000
Si       1.05448428      -1.09473687       1.89323458       0.00000000
Si       3.33393488       0.42122682      -1.00341225       0.00000000
Si      -2.50566264      -0.00074934       2.70961037       0.00000000
Si       2.63960132       2.60613936      -0.34622818       0.00000000
Si      -0.58963284      -1.00203048       3.55552369       0.00000000
Si      -0.15825735       3.16760679       2.11181228       0.00000000
Si      -2.74861170      -2.74789494       0.00266010       0.00000000
