10
Lattice="16.28999089631971 0.0 0.0 0.0 16.28999089631971 0.0 0.0 0.0 34.54679606040008" Properties=species:S:1:pos:R:3:initial_magmoms:R:1 pbc="T T T"
Si       0.57948417       1.93183110      -1.21342234       0.00000000
Si       0.17141967       0.08114049       2.37955010       0.00000000
Si       0.35290656      -1.98089658      -1.29799295       0.00000000
Si      -2.29671081      -0.01500309       0.68855258       0.00000000
Si      -1.59280362       2.17261359      -2.07360350       0.00000000
Si      -2.57548158       2.27905245       0.06695173       0.00000000
Si       2.70031185       1.18745955      -1.89579104       0.00000000
Si       1.56157569      -1.72836900       2.92328242       0.00000000
Si       3.75590385       0.26197578       0.17567056       0.00000000
Si      -1.63856223      -3.19013586      -1.17255346       0.00000000
