10
Lattice="16.28999089631971 0.0 0.0 0.0 16.28999089631971 0.0 0.0 0.0 34.54679606040008" Properties=species:S:1:pos:R:3:initial_magmoms:R:1 pbc="T T T"
Si       1.85870529       1.48882455       0.13549261       0.00000000
Si       0.34002117      -1.89640035       1.45407546       0.00000000
Si       0.31214898      -0.20779524      -2.52250482       0.00000000
Si      -2.30516532       0.80524728       1.64449751       0.00000000
Si       2.74736896       0.75738726       2.12838546       0.00000000
Si       1.29660255      -0.58878576       3.28741419       0.00000000
Si       2.14024536      -2.87495694       0.07019913       0.00000000
Si      -1.07800704       1.60171425      -3.06623714       0.00000000
Si      -0.35406315      -2.44832184      -2.74529723       0.00000000
Si       1.05031404       3.70367811      -0.15967538       0.00000000
