10
Lattice="16.28999089631971 0.0 0.0 0.0 16.28999089631971 0.0 0.0 0.0 34.54679606040008" Properties=species:S:1:pos:R:3:initial_magmoms:R:1 pbc="T T T"
Si       1.31092539      -1.40866146      -1.27401746       0.00000000
Si      -1.37367054       1.32299235      -1.36493431       0.00000000
Si      -1.35042471      -1.36531377       1.34725671       0.00000000
Si       1.36247346       1.35646830       1.35005500       0.00000000
Si       0.00481714      -2.84258871      -2.46203787       0.00000000
Si       2.70185030       2.69786720      -0.02833184       0.00000000
Si      -2.69488728       2.70736307      -0.00262556       0.00000000
Si       0.00485442       2.70725139       2.70667389       0.00000000
Si      -2.70976005      -0.00750969       2.70470472       0.00000000
Si       2.71973672      -0.00705357       2.70501564       0.00000000
