10
Lattice="16.28999089631971 0.0 0.0 0.0 16.28999089631971 0.0 0.0 0.0 34.54679606040008" Properties=species:S:1:pos:R:3:initial_magmoms:R:1 pbc="T T T"
Si      -1.86483033      -1.27063629      -0.72213208       0.00000000
Si       0.96598071       0.17979273      -2.18822983       0.00000000
Si      -0.40962834       2.30480694       0.54338686       0.00000000
Si       1.43161407      -1.12060539       1.63779542       0.00000000
Si      -1.04583429       1.49340204      -3.00052910       0.00000000
Si      -0.06457356       3.20738697      -1.61592729       0.00000000
Si       2.08310004       2.27377449      -2.04195862       0.00000000
Si      -0.85603950      -3.05826831      -1.99894783       0.00000000
Si       1.62163692       2.96285778       1.71362568       0.00000000
Si      -2.88336258      -2.40950277       1.10611993       0.00000000
