10
Lattice="16.28999089631971 0.0 0.0 0.0 16.28999089631971 0.0 0.0 0.0 34.54679606040008" Properties=species:S:1:pos:R:3:initial_magmoms:R:1 pbc="T T T"
Si      -0.04465089       2.35225971       0.22514160       0.00000000
Si       1.88173935      -1.00435995      -1.03820090       0.00000000
Si      -0.11679930      -1.14826581       2.08365662       0.00000000
Si      -2.04927223      -0.94902282      -0.77146493       0.00000000
Si       0.65096469      -2.61379566      -2.22578222       0.00000000
Si      -1.34742735      -3.19090149      -1.13303190       0.00000000
Si      -3.55270958      -0.43100082       0.96658535       0.00000000
Si      -1.34162811       2.79586899       2.13292038       0.00000000
Si       2.74833477      -2.52858267       0.51440208       0.00000000
Si       0.99533529       0.05929560       3.69644015       0.00000000
