10
Lattice="16.28999089631971 0.0 0.0 0.0 16.28999089631971 0.0 0.0 0.0 34.54679606040008" Properties=species:S:1:pos:R:3:initial_magmoms:R:1 pbc="T T T"
Si      -2.17228779       0.24078249      -0.86018116       0.00000000
Si       2.12082768      -0.74437155      -0.68236870       0.00000000
Si      -0.57948417      -1.93183110       1.21342234       0.00000000
Si       0.61665795       1.96315677       1.18347025       0.00000000
Si      -3.15496575       0.34722135       1.28037407       0.00000000
Si       3.49762690       1.13583654      -1.00797243       0.00000000
Si       3.17641968      -1.66985532       1.38909290       0.00000000
Si       2.94497136       2.29433247       0.96019419       0.00000000
Si      -0.22657761      -3.91272768      -0.08457060       0.00000000
Si      -2.87619498      -1.94683419       1.90197492       0.00000000
