10
Lattice="16.28999089631971 0.0 0.0 0.0 16.28999089631971 0.0 0.0 0.0 34.54679606040008" Properties=species:S:1:pos:R:3:initial_magmoms:R:1 pbc="T T T"
Si      -1.05827985       1.97895807      -0.76659383       0.00000000
Si       0.67502502       0.29740653       2.26551106       0.00000000
Si      -1.45329606      -1.80455733      -0.64105071       0.00000000
Si       2.27067939      -0.30980322      -0.88204929       0.00000000
Si       1.48341627      -1.91744703       2.56067905       0.00000000
Si      -0.06314004      -3.61406682      -0.09731838       0.00000000
Si      -0.42857361       2.00929005      -3.05055289       0.00000000
Si       0.24636996       3.68022281       0.41203987       0.00000000
Si       3.26407521      -1.52836038       0.97518750       0.00000000
Si       2.13118812      -1.62372204      -2.84493025       0.00000000
