10
Lattice="16.28999089631971 0.0 0.0 0.0 16.28999089631971 0.0 0.0 0.0 34.54679606040008" Properties=species:S:1:pos:R:3:initial_magmoms:R:1 pbc="T T T"
Si      -0.66976598       1.78597044      -1.40805910       0.00000000
Si       1.30279568       1.26506511       1.56203568       0.00000000
Si      -1.40527577      -1.30932504       1.52083169       0.00000000
Si       0.92013218      -0.92905128      -2.15416667       0.00000000
Si       2.67565335       0.87346980      -2.04209680       0.00000000
Si      -2.42335190       0.69854778      -2.51867012       0.00000000
Si      -2.46999017       2.76452703      -0.02418277       0.00000000
Si       3.19217667       1.92557574       0.31489422       0.00000000
Si      -0.86842253      -0.63503307      -3.73171245       0.00000000
Si      -3.01085075      -2.59646310       0.31178501       0.00000000
