10
Lattice="16.28999089631971 0.0 0.0 0.0 16.28999089631971 0.0 0.0 0.0 34.54679606040008" Properties=species:S:1:pos:R:3:initial_magmoms:R:1 pbc="T T T"
Si      -1.35666704      -1.35754344       1.35692981       0.00000000
Si       1.35663120       1.35703845       1.35755166       0.00000000
Si       1.35744570      -1.35729909      -1.35741347       0.00000000
Si      -1.35774055       1.35755973      -1.35703345       0.00000000
Si       2.71461447       0.00009774      -2.71430874       0.00000000
Si      -2.71469978      -2.71482624      -0.00055275       0.00000000
Si       2.71476108      -2.71485882       0.00024183       0.00000000
Si      -0.00288333      -2.71443528      -2.71544878       0.00000000
Si      -2.71527577      -0.00061902      -2.71489603       0.00000000
Si       2.71489140       2.71551042       0.00006909       0.00000000
