10
Lattice="16.28999089631971 0.0 0.0 0.0 16.28999089631971 0.0 0.0 0.0 34.54679606040008" Properties=species:S:1:pos:R:3:initial_magmoms:R:1 pbc="T T T"
Si       1.35480998      -1.35765747       1.35841533       0.00000000
Si       1.35666704       1.35754344      -1.35692981       0.00000000
Si      -1.35803274      -1.35728280      -1.35748256       0.00000000
Si      -1.35765345       1.35953082       1.36107543       0.00000000
Si       2.69995673       0.01037673       2.71876528       0.00000000
Si       2.71329824       2.71458189       0.00062184       0.00000000
Si       2.71411274       0.00024435      -2.71434328       0.00000000
Si       2.71460144      -2.71391400       0.00041456       0.00000000
Si      -0.00097414      -2.71485882      -2.71420510       0.00000000
Si      -0.00107351       2.71510317      -2.71396327       0.00000000
