10
Lattice="16.28999089631971 0.0 0.0 0.0 16.28999089631971 0.0 0.0 0.0 34.54679606040008" Properties=species:S:1:pos:R:3:initial_magmoms:R:1 pbc="T T T"
Si      -0.97359791       1.21267647      -1.68419180       0.00000000
Si       2.13547239       0.51168519       0.69394188       0.00000000
Si      -1.53444795      -0.78537348       1.61147075       0.00000000
Si       1.94805594      -1.44787149      -1.34832766       0.00000000
Si      -2.69165276       1.82048895      -0.07465567       0.00000000
Si       0.42171552      -1.68997347       3.00477836       0.00000000
Si      -2.16794555      -0.27782595      -2.99679805       0.00000000
Si       2.23523235      -0.05484843       3.02882294       0.00000000
Si       0.59939055       2.53513125      -2.95406364       0.00000000
Si       0.56294982      -2.88662058      -2.83232066       0.00000000
