10
Lattice="16.28999089631971 0.0 0.0 0.0 16.28999089631971 0.0 0.0 0.0 34.54679606040008" Properties=species:S:1:pos:R:3:initial_magmoms:R:1 pbc="T T T"
Si      -2.15315217      -0.57705696      -0.78203626       0.00000000
Si       1.33372746      -1.69070652       1.09468494       0.00000000
Si       0.58945365       1.23585714       2.03542927       0.00000000
Si       0.91010601       1.45248156      -2.19717746       0.00000000
Si       2.69078220       0.08550621       1.81975350       0.00000000
Si       0.03714120      -2.09101698       3.00978765       0.00000000
Si      -3.51760463       1.14144030       0.08774891       0.00000000
Si      -0.65719236       0.09389556       3.66697172       0.00000000
Si      -2.93520455      -2.63524959       0.11455724       0.00000000
Si      -2.40048530       3.23542206       0.23402013       0.00000000
