10
Lattice="16.28999089631971 0.0 0.0 0.0 16.28999089631971 0.0 0.0 0.0 34.54679606040008" Properties=species:S:1:pos:R:3:initial_magmoms:R:1 pbc="T T T"
Si       1.24664601       1.14196158      -1.63154245       0.00000000
Si       0.52740993       1.04725152       2.05373908       0.00000000
Si       0.69433356      -2.18491254      -0.65718407       0.00000000
Si      -2.39477891      -0.25285338       0.24680245       0.00000000
Si      -1.42105945       2.44167552       2.13243673       0.00000000
Si       1.99091982      -1.78460208      -2.57228678       0.00000000
Si      -2.63960132      -2.60613936       0.34622818       0.00000000
Si       0.65719236      -0.09389556      -3.66697172       0.00000000
Si      -2.79785867       0.56146743       2.45804046       0.00000000
Si       0.44881068      -0.57769227       3.72715227       0.00000000
