10
Lattice="16.28999089631971 0.0 0.0 0.0 16.28999089631971 0.0 0.0 0.0 34.54679606040008" Properties=species:S:1:pos:R:3:initial_magmoms:R:1 pbc="T T T"
Si       1.42586370      -1.80356364      -0.46551834       0.00000000
Si      -2.04749987      -0.36113301       1.13507017       0.00000000
Si       0.92696616       1.55996298       1.53201307       0.00000000
Si      -0.91109970       0.93300975      -2.02903811       0.00000000
Si       0.91574235       3.34547730       0.05952416       0.00000000
Si      -1.02198573       3.19603284      -1.30752787       0.00000000
Si       0.31372911      -3.01112505      -2.07830187       0.00000000
Si      -1.60003149      -0.40871610       3.46511467       0.00000000
Si      -0.47816037       1.75343931       3.45381787       0.00000000
Si      -2.97871514      -2.47471164       0.59026689       0.00000000
