10
Lattice="16.28999089631971 0.0 0.0 0.0 16.28999089631971 0.0 0.0 0.0 34.54679606040008" Properties=species:S:1:pos:R:3:initial_magmoms:R:1 pbc="T T T"
Si      -1.34359920      -1.36407573      -1.38601823       0.00000000
Si       1.37145510       1.35112518      -1.38605278       0.00000000
Si       1.30091940      -1.49810985       1.35247327       0.00000000
Si      -1.48634847       1.32928029       1.63506622       0.00000000
Si      -2.70443485       2.69687859       0.00117459       0.00000000
Si      -2.71260754      -2.71362078       0.00013819       0.00000000
Si       2.72870532       2.70985683      -0.00421471       0.00000000
Si      -2.69924323      -0.00908982      -2.74833735       0.00000000
Si       0.01488906       2.70412112      -2.74892465       0.00000000
Si       0.01495422      -2.72489346      -2.74816462       0.00000000
