10
Lattice="16.28999089631971 0.0 0.0 0.0 16.28999089631971 0.0 0.0 0.0 34.54679606040008" Properties=species:S:1:pos:R:3:initial_magmoms:R:1 pbc="T T T"
Si      -1.35769552      -1.35702216      -1.35675708       0.00000000
Si       1.35693094       1.35778417      -1.35720619       0.00000000
Si       1.35564403      -1.35498591       1.36231912       0.00000000
Si      -1.35891247       1.35812679       1.36007357       0.00000000
Si       2.71413229       2.71321094      -0.00058730       0.00000000
Si      -0.00056200       2.71502076      -2.71448147       0.00000000
Si       2.71514227       0.00013032      -2.71455056       0.00000000
Si      -0.00017430      -2.71528236      -2.71441238       0.00000000
Si       2.71419745      -2.71580364       0.00017273       0.00000000
Si      -2.71569028       0.00089595      -2.71455056       0.00000000
