10
Lattice="16.28999089631971 0.0 0.0 0.0 16.28999089631971 0.0 0.0 0.0 34.54679606040008" Properties=species:S:1:pos:R:3:initial_magmoms:R:1 pbc="T T T"
Si      -1.24664601      -1.14196158       1.63154245       0.00000000
Si       0.23524389       2.29876335       0.52310788       0.00000000
Si       2.10132855      -1.15035093      -0.21567577       0.00000000
Si      -0.58945365      -1.23585714      -2.03542927       0.00000000
Si       0.74427381      -2.92656366      -0.94074433       0.00000000
Si      -0.55231245      -3.32687412       0.97435838       0.00000000
Si      -1.98793712       3.03611083       0.08273962       0.00000000
Si      -0.71923608      -0.09471006       3.68528153       0.00000000
Si       2.15021484       3.08642364      -0.68388876       0.00000000
Si       3.62385711      -0.07299549      -1.69973786       0.00000000
