10
Lattice="16.28999089631971 0.0 0.0 0.0 16.28999089631971 0.0 0.0 0.0 34.54679606040008" Properties=species:S:1:pos:R:3:initial_magmoms:R:1 pbc="T T T"
Si      -0.23524389      -2.29876335      -0.52310788       0.00000000
Si      -2.22318101       0.73734748      -0.44036826       0.00000000
Si       1.91497095       0.78766029      -1.20699664       0.00000000
Si       0.72806526       0.66779226       2.19887025       0.00000000
Si      -1.48188990      -3.44072493       1.10843457       0.00000000
Si      -0.49513455       2.70970208       2.79670289       0.00000000
Si       3.13797528       0.85512744       2.20332679       0.00000000
Si      -2.25519412       3.09266369      -0.89745717       0.00000000
Si      -3.68664596       0.38988486       1.43106728       0.00000000
Si      -3.22518284      -0.29919843      -2.32451702       0.00000000
