10
Lattice="16.28999089631971 0.0 0.0 0.0 16.28999089631971 0.0 0.0 0.0 34.281931910070035" Properties=species:S:1:pos:R:3:initial_magmoms:R:1 pbc="T T T"
Si       1.48315563       1.33116993       1.22179297       0.00000000
Si      -0.83753406       1.35273789      -1.72357998       0.00000000
Si      -1.37066992      -1.57785754       1.12358889       0.00000000
Si       0.06343326       0.07910424      -3.48762634       0.00000000
Si      -0.01241298       2.50172046       2.66368497       0.00000000
Si      -0.11420919      -2.20736668      -3.00538213       0.00000000
Si       2.70166392      -0.21463704       2.64168624       0.00000000
Si      -2.73860054      -0.22278204       2.64329064       0.00000000
Si      -3.28581422       1.04163147      -1.86866120       0.00000000
Si      -0.02503773      -2.92932084       2.64031154       0.00000000
