10
Lattice="16.28999089631971 0.0 0.0 0.0 16.28999089631971 0.0 0.0 0.0 34.281931910070035" Properties=species:S:1:pos:R:3:initial_magmoms:R:1 pbc="T T T"
Si       1.35562448       1.35685926      -1.35660537       0.00000000
Si      -1.35958519      -1.35837423      -1.35629683       0.00000000
Si       1.35329501      -1.35837423       1.36380458       0.00000000
Si      -1.36093569       1.35746199       1.36013641       0.00000000
Si      -2.70381813      -0.02142135       2.71742742       0.00000000
Si       2.71352630      -0.00118917      -2.71413635       0.00000000
Si      -0.00193362       2.71412577      -2.71458201       0.00000000
Si      -2.71606821       2.71381626       0.00003428       0.00000000
Si       2.71429193      -2.71600238       0.00123415       0.00000000
Si      -0.00208512      -2.71595351      -2.71434204       0.00000000
