10
Lattice="16.28999089631971 0.0 0.0 0.0 16.28999089631971 0.0 0.0 0.0 34.281931910070035" Properties=species:S:1:pos:R:3:initial_magmoms:R:1 pbc="T T T"
Si       1.27319382      -1.36531281       1.51109355       0.00000000
Si      -0.89630838      -1.88730957      -1.23582804       0.00000000
Si       1.30715847       1.45597576      -1.47227065       0.00000000
Si      -1.43959617       1.34262994       1.48650996       0.00000000
Si       2.57996133      -2.76698586       0.11902008       0.00000000
Si       2.69612532       2.70685228       0.06181379       0.00000000
Si      -2.74976829      -2.70593094       0.05065501       0.00000000
Si       2.93250951       0.08202015      -2.55352339       0.00000000
Si       2.62536156      -0.01965714       2.88477476       0.00000000
Si      -2.65810446       2.88843691       0.06661669       0.00000000
