10
Lattice="16.28999089631971 0.0 0.0 0.0 16.28999089631971 0.0 0.0 0.0 34.281931910070035" Properties=species:S:1:pos:R:3:initial_magmoms:R:1 pbc="T T T"
Si       1.39900149      -0.86351172       1.62633576       0.00000000
Si      -1.01128320      -1.87228368      -0.94940435       0.00000000
Si       1.27974240       1.39639346      -1.44961230       0.00000000
Si      -1.94209380       0.81962972       1.23103058       0.00000000
Si       1.17123471       1.04897663       2.99661962       0.00000000
Si       0.40089690       3.39441083      -0.54892260       0.00000000
Si      -1.64677239      -2.83955130       1.16832889       0.00000000
Si      -2.34041688      -0.74382909      -2.68791066       0.00000000
Si       0.84165543       3.14921375       1.79932248       0.00000000
Si       0.11733687      -2.49420330       2.77752368       0.00000000
