10
Lattice="16.28999089631971 0.0 0.0 0.0 16.28999089631971 0.0 0.0 0.0 34.281931910070035" Properties=species:S:1:pos:R:3:initial_magmoms:R:1 pbc="T T T"
Si      -1.29415905      -1.27013130      -1.53286743       0.00000000
Si       1.20488985      -1.46323296       1.52803912       0.00000000
Si      -1.52003619       1.23934320       1.52463492       0.00000000
Si       1.27804824       1.74141729      -1.45072788       0.00000000
Si      -2.73318507      -2.63458170       0.10728879       0.00000000
Si       2.62104471      -2.81616633       0.10248589       0.00000000
Si       2.54830986      -0.11302002       2.91536797       0.00000000
Si       2.78039349       2.70914103       0.06251999       0.00000000
Si      -0.16516431       2.60358183       2.91320821       0.00000000
Si      -3.03464781       2.57038281       0.18256853       0.00000000
