10
Lattice="16.28999089631971 0.0 0.0 0.0 16.28999089631971 0.0 0.0 0.0 34.281931910070035" Properties=species:S:1:pos:R:3:initial_magmoms:R:1 pbc="T T T"
Si      -1.76769306       0.41658417      -1.54868714       0.00000000
Si       0.94280004       2.19331818       0.22046723       0.00000000
Si      -0.91035036       1.46300490       1.69431687       0.00000000
Si       1.10112255      -2.10787713       0.45159614       0.00000000
Si      -1.45450152       2.79218745      -0.60716764       0.00000000
Si      -3.04899930       0.99771363       0.74117578       0.00000000
Si      -0.18329508       1.70263080      -3.05606453       0.00000000
Si       0.12566106       0.43416108       3.55634104       0.00000000
Si       1.69849314       2.57338017      -1.96939524       0.00000000
Si       1.92713958      -2.85404058      -1.64961320       0.00000000
