10
Lattice="16.28999089631971 0.0 0.0 0.0 16.28999089631971 0.0 0.0 0.0 34.281931910070035" Properties=species:S:1:pos:R:3:initial_magmoms:R:1 pbc="T T T"
Si      -1.03601142       1.02884382      -1.86202417       0.00000000
Si      -0.25402626       1.66161258       1.69657948       0.00000000
Si      -0.95164551      -2.17326519       0.46482897       0.00000000
Si       2.41989579      -0.18280638      -0.27086170       0.00000000
Si       2.87873622      -0.13611924       2.06528186       0.00000000
Si      -0.12566106      -0.43416108      -3.55634104       0.00000000
Si      -0.51088698      -2.41846227       2.81307406       0.00000000
Si       1.85834691       1.94175171       2.66096504       0.00000000
Si      -1.06569180       3.63714975       0.70397987       0.00000000
Si       0.81713898       1.75915710      -3.33587381       0.00000000
