10
Lattice="16.28999089631971 0.0 0.0 0.0 16.28999089631971 0.0 0.0 0.0 34.281931910070035" Properties=species:S:1:pos:R:3:initial_magmoms:R:1 pbc="T T T"
Si       2.24121078       0.66207447       0.53370141       0.00000000
Si      -0.44075853       0.24519708      -2.34824508       0.00000000
Si      -1.46614887       1.49525910       1.21478094       0.00000000
Si       0.32957928      -2.10023712       1.19729714       0.00000000
Si      -0.48169530       1.11428487       3.27574327       0.00000000
Si       1.69199343       1.75166370       2.57817413       0.00000000
Si      -2.78374923      -2.32958403      -0.56829190       0.00000000
Si       0.43808697      -1.75282029      -3.24893478       0.00000000
Si      -0.84165543      -3.14921375      -1.79932248       0.00000000
Si       0.51088698       2.41846227      -2.81307406       0.00000000
