10
Lattice="16.28999089631971 0.0 0.0 0.0 16.28999089631971 0.0 0.0 0.0 34.281931910070035" Properties=species:S:1:pos:R:3:initial_magmoms:R:1 pbc="T T T"
Si       1.35661491       1.35741312      -1.35879941       0.00000000
Si       1.35671265      -1.35847197       1.35989643       0.00000000
Si      -1.35876519      -1.35749457      -1.35948505       0.00000000
Si      -1.36172997       1.35912357       1.36095918       0.00000000
Si      -2.71391400      -2.71347417      -0.00301681       0.00000000
Si       2.70855459       0.03012021       2.71917579       0.00000000
Si       2.71406061       0.00024435      -2.71708460       0.00000000
Si       2.71515204      -2.71612944      -0.00065136       0.00000000
Si      -0.00112401      -2.71516833      -2.71715316       0.00000000
Si      -2.71541268       2.71718829      -0.00191979       0.00000000
