10
Lattice="16.28999089631971 0.0 0.0 0.0 16.28999089631971 0.0 0.0 0.0 34.281931910070035" Properties=species:S:1:pos:R:3:initial_magmoms:R:1 pbc="T T T"
Si      -1.35668007      -1.35944937      -1.35605686       0.00000000
Si      -1.35733167       1.35700829       1.35794236       0.00000000
Si       1.35744570      -1.35764118       1.35739385       0.00000000
Si       1.35899325       1.35762583      -1.35705103       0.00000000
Si       2.71099809      -0.00014661      -2.71537050       0.00000000
Si       0.00032580      -2.71285515       2.71530193       0.00000000
Si       2.71445157      -2.71443528       0.00017141       0.00000000
Si       2.71423980       0.00184077       2.71533622       0.00000000
Si      -2.71382766      -0.00008145       2.71578188       0.00000000
Si       2.71435383       2.71553390       0.00054851       0.00000000
