10
Lattice="16.28999089631971 0.0 0.0 0.0 16.28999089631971 0.0 0.0 0.0 34.281931910070035" Properties=species:S:1:pos:R:3:initial_magmoms:R:1 pbc="T T T"
Si       0.69779844      -1.28979333       1.82602812       0.00000000
Si      -2.23402689       0.27766305       0.66342432       0.00000000
Si       0.15400566      -1.42332246      -1.89219229       0.00000000
Si       0.82971486       2.23031277      -0.40689248       0.00000000
Si      -0.01091430       0.28908234       3.44447903       0.00000000
Si      -3.19204179      -1.76453280       0.11165631       0.00000000
Si      -3.09244473       1.66767246      -1.08413242       0.00000000
Si       3.07610586       2.14856955       0.25495487       0.00000000
Si       2.15901144      -0.18524988      -3.14430627       0.00000000
Si      -2.31234921       0.73225179       3.01568039       0.00000000
