10
Lattice="16.28999089631971 0.0 0.0 0.0 16.28999089631971 0.0 0.0 0.0 34.281931910070035" Properties=species:S:1:pos:R:3:initial_magmoms:R:1 pbc="T T T"
Si       0.70198497       0.59624658      -2.10028373       0.00000000
Si      -0.02629206      -2.38034367       0.02615713       0.00000000
Si      -2.06101080       1.13774247       0.39880194       0.00000000
Si      -0.02355534       1.29020058       2.03425669       0.00000000
Si      -2.26491273       0.21289401       2.63713909       0.00000000
Si       1.94940801       0.18821466       2.98537514       0.00000000
Si       1.68153525       2.77847127      -1.61742245       0.00000000
Si      -1.32201495       3.35095074       0.69208403       0.00000000
Si      -0.94175748      -0.51668622      -3.61064365       0.00000000
Si       2.57978214      -0.49967946      -2.83631722       0.00000000
