10
Lattice="16.28999089631971 0.0 0.0 0.0 16.28999089631971 0.0 0.0 0.0 34.281931910070035" Properties=species:S:1:pos:R:3:initial_magmoms:R:1 pbc="T T T"
Si       0.10290393       1.30554576       1.96885774       0.00000000
Si      -1.97296335       1.10198592      -0.95111845       0.00000000
Si       2.04354792       0.74647296      -1.23312178       0.00000000
Si      -0.76559742      -2.31151842       0.59331773       0.00000000
Si      -0.73586817      -0.37918233       3.33422283       0.00000000
Si      -2.44912005      -1.45471329       2.11736818       0.00000000
Si      -1.94940801      -0.18821466      -2.98537514       0.00000000
Si      -1.55245329       3.13753545       1.85585342       0.00000000
Si       2.75783184      -1.03575078      -2.67611766       0.00000000
Si       1.53502299       2.67390576      -2.81091430       0.00000000
