10
Lattice="16.28999089631971 0.0 0.0 0.0 16.28999089631971 0.0 0.0 0.0 34.281931910070035" Properties=species:S:1:pos:R:3:initial_magmoms:R:1 pbc="T T T"
Si       0.11056023      -1.58510189       1.64635642       0.00000000
Si       0.42590205       2.06647170       0.98317207       0.00000000
Si      -2.30164668      -0.17285663      -0.52537090       0.00000000
Si       1.61722233      -0.40366964      -1.73377539       0.00000000
Si       0.26694423       3.13617084      -1.17573379       0.00000000
Si      -1.92837762      -1.57982393      -2.39490282       0.00000000
Si       1.71473427       1.83196086      -2.50961023       0.00000000
Si       0.34101486      -2.02866230      -2.90892639       0.00000000
Si      -1.58669487      -1.03691081       3.17711410       0.00000000
Si       2.29526100      -1.68380300       2.45181086       0.00000000
