10
Lattice="16.28999089631971 0.0 0.0 0.0 16.28999089631971 0.0 0.0 0.0 34.281931910070035" Properties=species:S:1:pos:R:3:initial_magmoms:R:1 pbc="T T T"
Si      -0.17764245      -2.28647092       0.48224421       0.00000000
Si      -0.90096732       1.27363365       1.76404636       0.00000000
Si       2.31085053       0.54665982      -0.24089927       0.00000000
Si      -0.69858036       0.76092219      -2.15918012       0.00000000
Si      -0.06343326      -0.07910424       3.48762634       0.00000000
Si      -2.46143040      -2.66490065      -0.01408988       0.00000000
Si       1.27262367       0.53266671      -3.47265880       0.00000000
Si       2.94746373      -0.52382124      -2.24303378       0.00000000
Si       2.39518386       2.80860777      -0.93466311       0.00000000
Si      -3.34924748       0.96252723       1.61896514       0.00000000
