10
Lattice="16.28999089631971 0.0 0.0 0.0 16.28999089631971 0.0 0.0 0.0 34.281931910070035" Properties=species:S:1:pos:R:3:initial_magmoms:R:1 pbc="T T T"
Si      -1.35521397      -1.35754344      -1.35605686       0.00000000
Si       1.35817875      -1.35728280       1.35674250       0.00000000
Si       1.35824391       1.35705474      -1.35746242       0.00000000
Si      -1.35770634       1.35827649       1.35735957       0.00000000
Si      -0.00109143      -2.71507385      -2.70916547       0.00000000
Si      -2.71363707       0.00154755       2.71444489       0.00000000
Si      -2.71500543      -2.71412577       0.00010285       0.00000000
Si       2.71536381      -2.71415672      -0.00020569       0.00000000
Si      -2.71474479       2.71511946      -0.00037710       0.00000000
Si       2.71549413       0.00092853       2.71447917       0.00000000
