10
Lattice="16.28999089631971 0.0 0.0 0.0 16.28999089631971 0.0 0.0 0.0 34.281931910070035" Properties=species:S:1:pos:R:3:initial_magmoms:R:1 pbc="T T T"
Si      -1.35593073      -1.35672894       1.35708532       0.00000000
Si      -1.35703845       1.35684297      -1.35773667       0.00000000
Si       1.35770634      -1.35827649      -1.35735957       0.00000000
Si       1.35923760       1.35588186       1.35876513       0.00000000
Si      -2.71419093       0.00032580       2.71485627       0.00000000
Si      -2.71467963       2.71451673      -0.00006856       0.00000000
Si       0.00249237      -2.71581993      -2.71341643       0.00000000
Si       0.00114030       2.71521720      -2.71403350       0.00000000
Si       2.71518462       2.71425609      -0.00023997       0.00000000
Si       2.71336014      -0.00131949       2.71619327       0.00000000
