10
Lattice="16.28999089631971 0.0 0.0 0.0 16.28999089631971 0.0 0.0 0.0 34.281931910070035" Properties=species:S:1:pos:R:3:initial_magmoms:R:1 pbc="T T T"
Si      -0.70747470      -1.87962165       1.33260800       0.00000000
Si       1.28700774      -1.41491682      -1.51930751       0.00000000
Si      -1.43896086       1.26658008      -1.51670208       0.00000000
Si       0.85317246       2.04784848       1.32342044       0.00000000
Si       2.61058653      -2.75739201      -0.06657555       0.00000000
Si      -0.93612114       3.54779910       1.01282596       0.00000000
Si      -2.68587891      -2.73204477      -0.03774443       0.00000000
Si       2.65654062       2.76491799      -0.12660325       0.00000000
Si      -2.81790936       2.67704973      -0.07384332       0.00000000
Si      -0.07188777       2.63243142      -2.89679058       0.00000000
