10
Lattice="16.28999089631971 0.0 0.0 0.0 16.28999089631971 0.0 0.0 0.0 34.281931910070035" Properties=species:S:1:pos:R:3:initial_magmoms:R:1 pbc="T T T"
Si      -1.78929360       1.49995062      -0.31059448       0.00000000
Si       1.80336816       0.71706951      -1.45002368       0.00000000
Si       1.22914566       0.63416970       2.10000948       0.00000000
Si      -0.85317246      -2.04784848      -1.32342044       0.00000000
Si      -2.54498670       1.11988863       1.87926799       0.00000000
Si       0.42678171       1.97317512      -2.86093166       0.00000000
Si      -2.29213332      -0.78126840      -2.84012252       0.00000000
Si      -0.87081453       3.37852971      -1.32746571       0.00000000
Si       3.36694752       2.02807242      -0.00627360       0.00000000
Si      -3.67108182       0.62920125      -1.39726376       0.00000000
