10
Lattice="16.28999089631971 0.0 0.0 0.0 16.28999089631971 0.0 0.0 0.0 34.281931910070035" Properties=species:S:1:pos:R:3:initial_magmoms:R:1 pbc="T T T"
Si       2.24453394      -0.82578897      -0.28159195       0.00000000
Si      -0.62666001      -2.11773258       0.98173223       0.00000000
Si      -0.48764115       2.02064418       1.27463722       0.00000000
Si      -1.93207545      -0.33858765      -1.55924598       0.00000000
Si      -0.17969499      -3.53493000      -0.96928788       0.00000000
Si      -2.98033695      -1.96783200       1.10963819       0.00000000
Si       2.05897455      -3.07029033      -0.99746765       0.00000000
Si      -2.90753694       2.20345056       1.54549892       0.00000000
Si      -1.10605842      -1.08475110      -3.66045533       0.00000000
Si       3.44323359      -1.05406074       1.72445070       0.00000000
