10
Lattice="16.28999089631971 0.0 0.0 0.0 16.28999089631971 0.0 0.0 0.0 34.281931910070035" Properties=species:S:1:pos:R:3:initial_magmoms:R:1 pbc="T T T"
Si       1.35700587       1.35703845       1.35636539       0.00000000
Si      -1.35817875      -1.35837423       1.35629683       0.00000000
Si       1.35350352      -1.35891180      -1.36257043       0.00000000
Si      -1.35997065       1.35769005      -1.36473019       0.00000000
Si       2.71404432      -0.00096111       2.71379353       0.00000000
Si      -0.00043983       2.71420722       2.71465058       0.00000000
Si       2.71389771       2.71511946      -0.00253686       0.00000000
Si      -0.00114030      -2.71521720       2.71403350       0.00000000
Si      -2.71581993      -0.00070047       2.71396494       0.00000000
Si       2.71480995      -2.71643895      -0.00078848       0.00000000
