10
Lattice="16.28999089631971 0.0 0.0 0.0 16.28999089631971 0.0 0.0 0.0 34.281931910070035" Properties=species:S:1:pos:R:3:initial_magmoms:R:1 pbc="T T T"
Si       2.05216533      -1.09711521       0.52941617       0.00000000
Si      -1.03633722       0.57800178       2.10446613       0.00000000
Si       1.16563095       2.13947973       0.02080914       0.00000000
Si      -1.22914566      -0.63416970      -2.10000948       0.00000000
Si       2.13780186       1.39390272      -2.10628307       0.00000000
Si       0.57422250       0.08289981      -3.55003316       0.00000000
Si       0.90512127       1.03650012       3.46641948       0.00000000
Si      -3.77413236       0.48571893      -0.22074148       0.00000000
Si       3.67271082      -0.23051979      -1.07007682       0.00000000
Si      -2.17137555      -1.45624455       2.84427063       0.00000000
