10
Lattice="16.28999089631971 0.0 0.0 0.0 16.28999089631971 0.0 0.0 0.0 34.281931910070035" Properties=species:S:1:pos:R:3:initial_magmoms:R:1 pbc="T T T"
Si      -0.76997943      -1.84703839       1.17391068       0.00000000
Si       1.88661006       0.92264931       1.08933025       0.00000000
Si      -0.93525777      -0.59002380      -2.11281108       0.00000000
Si      -1.46188089       1.88638200      -0.21153408       0.00000000
Si      -2.01647394      -0.34433802       2.55697143       0.00000000
Si      -0.80669709       1.55846430      -2.97352803       0.00000000
Si       2.41352640      -1.39760055      -2.13944816       0.00000000
Si       0.69895503       2.38871673       2.54972080       0.00000000
Si       2.86862013       0.93299346      -1.97636892       0.00000000
Si      -3.29817114       1.04094729       1.10928235       0.00000000
