10
Lattice="16.28999089631971 0.0 0.0 0.0 16.28999089631971 0.0 0.0 0.0 34.281931910070035" Properties=species:S:1:pos:R:3:initial_magmoms:R:1 pbc="T T T"
Si       1.35398730      -1.35726125       1.36202192       0.00000000
Si      -1.36153449       1.35734796       1.36215904       0.00000000
Si       1.35005004       1.35374787      -1.38613584       0.00000000
Si      -1.36257705      -1.36066156      -1.37066097       0.00000000
Si       2.70988127       2.71490769      -0.00195407       0.00000000
Si       2.71168783      -2.71631582       0.00188551       0.00000000
Si      -2.71332756       2.71640637       0.00263971       0.00000000
Si       2.71142556       0.00020851       2.71910723       0.00000000
Si      -2.71946889      -2.71372571       0.00174838       0.00000000
Si      -0.00275301       2.71492398       2.71914151       0.00000000
