10
Lattice="16.28999089631971 0.0 0.0 0.0 16.28999089631971 0.0 0.0 0.0 34.281931910070035" Properties=species:S:1:pos:R:3:initial_magmoms:R:1 pbc="T T T"
Si      -1.35837697      -1.35536058      -1.35732529       0.00000000
Si      -1.35695098       1.35723393       1.35797665       0.00000000
Si       1.35755810      -1.35726651       1.35797665       0.00000000
Si       1.35775358       1.35886293      -1.35698247       0.00000000
Si      -0.00327429       2.71371852      -2.71074243       0.00000000
Si      -2.71245672      -0.00022806      -2.71526765       0.00000000
Si      -2.71421604       2.71435383       0.00078848       0.00000000
Si       0.00193362      -2.71412577       2.71458201       0.00000000
Si      -2.71413459      -0.00030951       2.71461630       0.00000000
Si       2.71454768       2.71474479       0.00034282       0.00000000
