10
Lattice="16.28999089631971 0.0 0.0 0.0 16.28999089631971 0.0 0.0 0.0 34.281931910070035" Properties=species:S:1:pos:R:3:initial_magmoms:R:1 pbc="T T T"
Si      -1.88661006      -0.92264931      -1.08933025       0.00000000
Si      -1.18765503       1.46606742       1.46039055       0.00000000
Si       0.99895167       1.78344549      -1.33391213       0.00000000
Si       1.52922375      -1.25406936       1.44625267       0.00000000
Si       0.98201007       0.01034415      -3.06569917       0.00000000
Si      -3.34849095       0.96373269      -1.30086433       0.00000000
Si      -2.52125217       2.80215693      -0.06829993       0.00000000
Si      -2.53415385       0.10858914       2.83502822       0.00000000
Si      -2.65658949      -2.76968770       0.08458043       0.00000000
Si       0.17917371      -2.60781723       2.83238851       0.00000000
