10
Lattice="16.28999089631971 0.0 0.0 0.0 16.28999089631971 0.0 0.0 0.0 34.281931910070035" Properties=species:S:1:pos:R:3:initial_magmoms:R:1 pbc="T T T"
Si      -1.36102787       1.35485559      -1.35375997       0.00000000
Si       1.35679410       1.35588186       1.35732529       0.00000000
Si       1.35646830      -1.35666378      -1.35893654       0.00000000
Si      -1.35775358      -1.35886293       1.35698247       0.00000000
Si      -0.00724905       2.70945054      -2.69013898       0.00000000
Si      -2.71509407       2.71269225       0.00143984       0.00000000
Si      -0.00009774       2.71316466       2.71499340       0.00000000
Si      -2.71470456      -0.00162900       2.71495911       0.00000000
Si       2.71464705      -0.00167787       2.71509624       0.00000000
Si      -2.71613055      -2.71422351      -0.00034282       0.00000000
