10
Lattice="16.28999089631971 0.0 0.0 0.0 16.28999089631971 0.0 0.0 0.0 34.281931910070035" Properties=species:S:1:pos:R:3:initial_magmoms:R:1 pbc="T T T"
Si      -0.24309567       2.30044122      -0.32567854       0.00000000
Si      -2.14575138      -0.92750373       0.26486235       0.00000000
Si       0.85968846      -0.34930647      -2.21519683       0.00000000
Si       1.60897959      -0.57067128       1.72911305       0.00000000
Si       2.02078820       2.72419299      -0.84909536       0.00000000
Si       1.29886686      -2.60146413      -2.22630418       0.00000000
Si       2.83046310       0.88935255      -2.14947833       0.00000000
Si      -3.10635639      -1.01449233      -1.86528096       0.00000000
Si       3.65497820       0.26389800       1.01375158       0.00000000
Si       1.98926868      -2.88125207       1.49195051       0.00000000
