10
Lattice="16.28999089631971 0.0 0.0 0.0 16.28999089631971 0.0 0.0 0.0 34.281931910070035" Properties=species:S:1:pos:R:3:initial_magmoms:R:1 pbc="T T T"
Si      -0.96060501      -0.08698860      -2.13014331       0.00000000
Si       2.14575138       0.92750373      -0.26486235       0.00000000
Si      -1.44779004       1.30420998       1.33387643       0.00000000
Si      -0.09751194      -2.23563050       0.77583483       0.00000000
Si      -1.71473427      -1.83196086       2.50961023       0.00000000
Si       0.05610276      -1.99012391      -3.05616737       0.00000000
Si      -1.28883222       0.23451084       3.49278230       0.00000000
Si      -3.52061109       1.30287420       0.02447731       0.00000000
Si       1.75773987      -2.94445727      -1.59723038       0.00000000
Si       1.90265571       3.22794495      -0.59054089       0.00000000
