10
Lattice="16.28999089631971 0.0 0.0 0.0 16.28999089631971 0.0 0.0 0.0 34.281931910070035" Properties=species:S:1:pos:R:3:initial_magmoms:R:1 pbc="T T T"
Si      -1.40243868       0.91103454      -1.65499547       0.00000000
Si      -0.45509373      -2.33059401      -0.16307924       0.00000000
Si       2.44828016       0.31110642       0.14508122       0.00000000
Si       0.01694160       1.77310134       1.73178704       0.00000000
Si      -0.98201007      -0.01034415       3.06569917       0.00000000
Si      -2.86862013      -0.93299346       1.97636892       0.00000000
Si      -1.03941603       3.33453042      -1.10041635       0.00000000
Si       3.34924748      -0.96252723      -1.61896514       0.00000000
Si      -3.67531722       0.62547084      -0.99715911       0.00000000
Si       3.28581422      -1.04163147       1.86866120       0.00000000
