10
Lattice="16.28999089631971 0.0 0.0 0.0 16.28999089631971 0.0 0.0 0.0 34.281931910070035" Properties=species:S:1:pos:R:3:initial_magmoms:R:1 pbc="T T T"
Si       1.50814449       0.80798400       1.64841334       0.00000000
Si       1.31468445      -1.56188520      -1.31704400       0.00000000
Si      -1.62054549      -0.86659542       1.59949299       0.00000000
Si      -1.53490896       1.62442251      -1.03620625       0.00000000
Si       1.58496813      -1.47479886       2.40196490       0.00000000
Si       2.35174513       0.21546783      -2.48952100       0.00000000
Si      -1.58843790      -3.11863905       0.84539291       0.00000000
Si      -2.50707987       2.36999952       1.09088596       0.00000000
Si      -0.41236506      -2.62031166      -2.56161595       0.00000000
Si      -3.67271082       0.23051979       1.07007682       0.00000000
