10
Lattice="16.28999089631971 0.0 0.0 0.0 16.28999089631971 0.0 0.0 0.0 34.281931910070035" Properties=species:S:1:pos:R:3:initial_magmoms:R:1 pbc="T T T"
Si      -1.52347338      -0.95351886       1.51272537       0.00000000
Si       2.19590829      -0.32259087       0.80168343       0.00000000
Si       0.22317300      -1.16509338      -2.04954644       0.00000000
Si      -0.03210759       2.25204363       0.75410008       0.00000000
Si       1.72717983      -1.84748148       2.53782427       0.00000000
Si       1.58843790       3.11863905      -0.84539291       0.00000000
Si       1.17607284       0.49832739      -3.40700886       0.00000000
Si      -1.70903277      -3.19802022       0.79684967       0.00000000
Si      -0.32477373      -1.18179063       3.51876802       0.00000000
Si       1.93578957      -2.94645375      -1.62410743       0.00000000
