10
Lattice="16.28999089631971 0.0 0.0 0.0 16.28999089631971 0.0 0.0 0.0 34.281931910070035" Properties=species:S:1:pos:R:3:initial_magmoms:R:1 pbc="T T T"
Si      -0.86720208      -1.85842836      -1.21484950       0.00000000
Si       1.82941913       0.83437380      -1.34217267       0.00000000
Si      -1.79623707       1.80761985      -0.21261666       0.00000000
Si      -2.13761031      -0.54131670      -2.79120217       0.00000000
Si       0.57557131       2.20880997      -2.78554565       0.00000000
Si      -2.50345113      -0.07172487       2.75150367       0.00000000
Si       3.02173310       2.30900976       0.18460831       0.00000000
Si       1.94695148      -1.64708190       2.86669103       0.00000000
Si      -2.76356985      -2.69558775       0.32571282       0.00000000
Si      -3.52328658       0.74919339      -1.45718861       0.00000000
