10
Lattice="16.28999089631971 0.0 0.0 0.0 16.28999089631971 0.0 0.0 0.0 34.281931910070035" Properties=species:S:1:pos:R:3:initial_magmoms:R:1 pbc="T T T"
Si      -1.00281240       0.20717622      -2.08180576       0.00000000
Si       0.00184077      -2.00101473       1.25667348       0.00000000
Si       2.25860103       0.51018651      -0.57528542       0.00000000
Si      -1.03671189       1.99239732       0.95224975       0.00000000
Si      -0.08245998       3.38260221      -0.63154210       0.00000000
Si      -0.18547794      -1.03343760       3.47197316       0.00000000
Si       1.90530970      -3.09218409       0.38999148       0.00000000
Si       2.20820628       2.86329330      -0.82201262       0.00000000
Si      -1.06241751       2.51072883      -2.57639147       0.00000000
Si       3.48442190       0.17917371       1.40014345       0.00000000
