10
Lattice="16.28999089631971 0.0 0.0 0.0 16.28999089631971 0.0 0.0 0.0 34.281931910070035" Properties=species:S:1:pos:R:3:initial_magmoms:R:1 pbc="T T T"
Si      -1.35045729      -1.35493704       1.36066435       0.00000000
Si       1.36619343       1.35956340       1.36035581       0.00000000
Si      -1.26578187       1.42169346      -1.40323911       0.00000000
Si       1.33744158      -1.41349959      -1.41986242       0.00000000
Si      -2.69715159      -2.71880100      -0.02105940       0.00000000
Si      -2.70941796       2.71419093      -0.00477205       0.00000000
Si      -2.70910845       0.00519651       2.72248057       0.00000000
Si       0.00750969      -2.71116099       2.72402326       0.00000000
Si       2.72105317      -2.71997388       0.00131986       0.00000000
Si       0.00433314       2.71775844       2.72368044       0.00000000
