10
Lattice="16.28999089631971 0.0 0.0 0.0 16.28999089631971 0.0 0.0 0.0 34.281931910070035" Properties=species:S:1:pos:R:3:initial_magmoms:R:1 pbc="T T T"
Si       1.31540121       1.32571278      -1.40302313       0.00000000
Si      -2.27615283       0.26296947       0.47974162       0.00000000
Si       0.87853599       0.98901477       1.94724910       0.00000000
Si       0.62012772      -2.27822166      -0.12591761       0.00000000
Si       3.08397460       0.18735129       1.55856034       0.00000000
Si      -0.26992530      -0.35344413       3.46299129       0.00000000
Si       0.03104874       3.36232116      -1.01512285       0.00000000
Si       2.66684634      -2.09666961       1.06315187       0.00000000
Si      -3.33992241      -1.52876763      -0.60181965       0.00000000
Si      -2.49072471      -0.44582472       2.74838402       0.00000000
