10
Lattice="16.28999089631971 0.0 0.0 0.0 16.28999089631971 0.0 0.0 0.0 34.281931910070035" Properties=species:S:1:pos:R:3:initial_magmoms:R:1 pbc="T T T"
Si      -1.31540121      -1.32571278       1.40302313       0.00000000
Si       0.38714814      -0.84121560      -2.15571765       0.00000000
Si      -1.28435247       2.03660838       0.38790028       0.00000000
Si       2.29496193      -0.38665944       0.77340082       0.00000000
Si       0.40252590       3.30710525      -0.50603588       0.00000000
Si      -0.43686522      -0.33669801       3.35027223       0.00000000
Si       1.76857339      -1.13836149       2.96158347       0.00000000
Si      -0.16648380       0.92330091      -3.56343740       0.00000000
Si      -0.66780855      -2.90058111      -2.47035739       0.00000000
Si      -0.69527349      -3.60393444       1.27710552       0.00000000
