10
Lattice="16.28999089631971 0.0 0.0 0.0 16.28999089631971 0.0 0.0 0.0 34.281931910070035" Properties=species:S:1:pos:R:3:initial_magmoms:R:1 pbc="T T T"
Si      -1.44213415       0.80813061       1.60329829       0.00000000
Si       0.45395343       1.92502188      -1.23432165       0.00000000
Si       2.00650446      -0.69569703       0.97847545       0.00000000
Si      -1.27052226      -1.51283601      -1.29013266       0.00000000
Si      -3.48885278       0.62657856       0.41422881       0.00000000
Si       2.72850984       1.58418621      -1.76041247       0.00000000
Si       3.54017538      -0.39135096      -0.76781286       0.00000000
Si      -3.31184564      -0.39762261      -1.74354575       0.00000000
Si      -1.66913204      -3.42671553       0.00829623       0.00000000
Si       1.81716579      -2.97616671       1.56346266       0.00000000
