10
Lattice="16.28999089631971 0.0 0.0 0.0 16.28999089631971 0.0 0.0 0.0 34.281931910070035" Properties=species:S:1:pos:R:3:initial_magmoms:R:1 pbc="T T T"
Si       1.44213415      -0.80813061      -1.60329829       0.00000000
Si      -0.03197238      -0.99781137       2.13545701       0.00000000
Si      -2.04671862      -0.18155205      -1.18906947       0.00000000
Si       0.41712826       2.28402090       0.49540847       0.00000000
Si      -2.32263864      -0.47850246       2.32592753       0.00000000
Si      -2.66684634       2.09666961      -1.06315187       0.00000000
Si      -3.30259617      -1.35037584       0.38107817       0.00000000
Si       1.89608758       1.11689127      -2.83761994       0.00000000
Si       0.94351680       3.03572295      -1.69277418       0.00000000
Si      -1.78831035       3.08568438       0.88409724       0.00000000
