10
Lattice="16.28999089631971 0.0 0.0 0.0 16.28999089631971 0.0 0.0 0.0 34.281931910070035" Properties=species:S:1:pos:R:3:initial_magmoms:R:1 pbc="T T T"
Si      -0.45395343      -1.92502188       1.23432165       0.00000000
Si      -0.79045433       0.40431780      -2.16871051       0.00000000
Si       2.27455641      -0.34083567      -0.52609082       0.00000000
Si      -0.95257078       1.91883168       1.14484576       0.00000000
Si       1.05481008       1.58027661      -2.92634163       0.00000000
Si      -1.89608758      -1.11689127       2.83761994       0.00000000
Si       3.23257131       1.70136018       0.02567718       0.00000000
Si      -2.86038458       1.46427552      -1.78427271       0.00000000
Si       1.55255103      -2.62071891       2.21279710       0.00000000
Si      -1.47895933       1.16712963       3.33302841       0.00000000
