10
Lattice="16.28999089631971 0.0 0.0 0.0 16.28999089631971 0.0 0.0 0.0 34.281931910070035" Properties=species:S:1:pos:R:3:initial_magmoms:R:1 pbc="T T T"
Si       1.77057639       0.80886366       1.54491754       0.00000000
Si       0.29822103      -1.91746332      -1.63689460       0.00000000
Si      -1.82124155       1.77546339       0.24645744       0.00000000
Si      -0.84631111      -1.92479382       1.48356313       0.00000000
Si       0.92447379       1.61497431      -2.09143899       0.00000000
Si      -2.14590103      -0.52567830       2.91658982       0.00000000
Si       0.56231451       2.19480057       2.94901712       0.00000000
Si       2.63158434      -1.73734479      -2.08434262       0.00000000
Si      -1.21507599      -1.36360332      -3.40292931       0.00000000
Si      -0.69923196       3.49736526       1.49548296       0.00000000
