10
Lattice="16.28999089631971 0.0 0.0 0.0 16.28999089631971 0.0 0.0 0.0 34.281931910070035" Properties=species:S:1:pos:R:3:initial_magmoms:R:1 pbc="T T T"
Si      -1.23353533       1.41463989       1.37912861       0.00000000
Si       1.33500460       1.36041048      -1.35561119       0.00000000
Si      -1.37813816      -1.35423657      -1.35362284       0.00000000
Si       1.35334714      -1.28199042       1.47820345       0.00000000
Si      -2.05148182      -0.38555172       2.78897385       0.00000000
Si      -0.44085790      -2.25254862       2.79624162       0.00000000
Si       2.59941811       0.35497539       2.75894286       0.00000000
Si       2.69530105      -2.70265761       0.01936930       0.00000000
Si       2.69507299       0.00772146      -2.71341643       0.00000000
Si      -0.01879052      -2.70762606      -2.71362212       0.00000000
