10
Lattice="16.28999089631971 0.0 0.0 0.0 16.28999089631971 0.0 0.0 0.0 34.281931910070035" Properties=species:S:1:pos:R:3:initial_magmoms:R:1 pbc="T T T"
Si       1.01128320       1.87228368       0.94940435       0.00000000
Si       1.39773087      -1.78067619      -0.55615609       0.00000000
Si      -0.63548919      -0.96726762       2.11773325       0.00000000
Si      -1.32913368       1.12845458      -1.73850630       0.00000000
Si      -2.11902601       0.69009720       2.61372451       0.00000000
Si      -0.93081060       2.69191340       2.18043493       0.00000000
Si       2.41028469       1.00877195       2.57574011       0.00000000
Si      -0.57159981      -0.03218904      -3.64139456       0.00000000
Si       0.07838748      -3.29176917      -1.76061816       0.00000000
Si      -3.53777165       0.44056305      -1.28289917       0.00000000
