10
Lattice="16.28999089631971 0.0 0.0 0.0 16.28999089631971 0.0 0.0 0.0 34.281931910070035" Properties=species:S:1:pos:R:3:initial_magmoms:R:1 pbc="T T T"
Si      -2.09805330      -1.00937727       0.31193147       0.00000000
Si      -0.38028909       2.31058079       0.23716254       0.00000000
Si       1.01200159       0.22933455      -2.13566271       0.00000000
Si       1.33090277      -0.59561127       1.93713593       0.00000000
Si      -2.21335392      -0.03145599       2.55674791       0.00000000
Si      -0.09007979       0.66678947       3.36024828       0.00000000
Si       1.66570952       3.14515007      -0.47819894       0.00000000
Si      -1.52979294      -3.36401532       0.13805342       0.00000000
Si       3.53736535      -0.12403206       1.14128043       0.00000000
Si      -0.69040182       0.27978794      -3.71825469       0.00000000
