10
Lattice="16.290000149 0.0 0.0 0.0 16.290000149 0.0 0.0 0.0 29.1751946751" Properties=species:S:1:pos:R:3:initial_magmoms:R:1 pbc="T T T"
Si      -0.42979536       0.24169473      -2.28678239       0.00000000
Si       0.81070444       1.85842838       1.18230872       0.00000000
Si      -1.87752026      -0.79832404       1.19635366       0.00000000
Si       1.63626535      -1.73187137       0.08598659       0.00000000
Si       2.18626463       0.59522032       2.60027861       0.00000000
Si      -0.67328200      -2.19470285       2.63866150       0.00000000
Si      -2.15368463       1.86142574      -2.18309375       0.00000000
Si      -0.48479040      -2.05115537      -2.95022632       0.00000000
Si       1.71919775      -2.42693309      -2.14359054       0.00000000
Si       0.64537723      -3.51661030       1.23975176       0.00000000
