10
Lattice="16.290000149 0.0 0.0 0.0 16.290000149 0.0 0.0 0.0 29.1751946751" Properties=species:S:1:pos:R:3:initial_magmoms:R:1 pbc="T T T"
Si       1.36783873       1.34842105       1.33969576       0.00000000
Si       1.44241435      -1.33306936      -1.28265826       0.00000000
Si      -1.34975683      -1.38656572       1.33756598       0.00000000
Si      -1.37642356       1.34201908      -1.35830954       0.00000000
Si       0.12171888      -2.67466360      -2.62084567       0.00000000
Si       0.03443706       2.74843254      -2.61669695       0.00000000
Si       0.00286704       2.69390990       2.69249119       0.00000000
Si      -2.79513597      -0.08889453      -2.59305921       0.00000000
Si       2.69307911      -0.03342708       2.70168138       0.00000000
Si      -2.71292033      -0.02523321       2.68376781       0.00000000
