10
Lattice="16.290000149 0.0 0.0 0.0 16.290000149 0.0 0.0 0.0 29.1751946751" Properties=species:S:1:pos:R:3:initial_magmoms:R:1 pbc="T T T"
Si      -1.34294761       1.35819505      -1.36869591       0.00000000
Si       1.32754542      -1.34938216      -1.39527451       0.00000000
Si       1.34831191       1.37823175       1.35133667       0.00000000
Si      -1.34425081      -1.37165059       1.36300674       0.00000000
Si       2.66665673      -2.70840800      -0.03241364       0.00000000
Si      -2.68690520       2.72337851      -0.01782604       0.00000000
Si      -2.70956459      -2.71150310      -0.00924854       0.00000000
Si      -2.72751617      -0.02792106       2.69908479       0.00000000
Si       2.71834490       0.03593574       2.70859590       0.00000000
Si       2.70839171       2.72881938      -0.00189639       0.00000000
