10
Lattice="16.290000149 0.0 0.0 0.0 16.290000149 0.0 0.0 0.0 29.1751946751" Properties=species:S:1:pos:R:3:initial_magmoms:R:1 pbc="T T T"
Si       0.34626024      -0.88211980      -2.13544920       0.00000000
Si      -1.82259038       1.45676584       0.16571511       0.00000000
Si       1.62077356       1.68795353       0.06993294       0.00000000
Si       0.22662648      -1.51301521       1.83768716       0.00000000
H       -0.90469774      -1.45078741       2.84271427       0.00000000
Si       1.06069078       2.72354141       2.07954953       0.00000000
Si       2.28954323      -0.81940330       2.73861717       0.00000000
Si       1.40181967       0.88053967      -3.31698623       0.00000000
Si      -3.65145240       0.16190631       0.80161765       0.00000000
H       -1.83324404       0.31776903       3.29154546       0.00000000
