10
Lattice="16.290000149 0.0 0.0 0.0 16.290000149 0.0 0.0 0.0 29.1751946751" Properties=species:S:1:pos:R:3:initial_magmoms:R:1 pbc="T T T"
H       -0.15283278       0.79535926       1.27597714       0.00000000
Si       1.08080893       1.17037135      -1.70240178       0.00000000
Si      -2.20711583       0.08547363      -0.81623442       0.00000000
Si       0.85983508      -2.07814790       0.79484900       0.00000000
H       -1.44769231      -1.88006150       1.70753662       0.00000000
H       -1.56138022       2.82620100       0.82043565       0.00000000
Si      -2.73253350      -1.92925730       0.89366539       0.00000000
Si       1.95693401      -0.61033744      -2.98567272       0.00000000
Si       0.71713468      -1.66526156       3.15404277       0.00000000
Si      -2.75516031       2.46150047      -0.07573881       0.00000000
