10
Lattice="16.290000149 0.0 0.0 0.0 16.290000149 0.0 0.0 0.0 29.1751946751" Properties=species:S:1:pos:R:3:initial_magmoms:R:1 pbc="T T T"
Si      -1.30403080       1.38126169      -1.37426837       0.00000000
Si       1.37953821       1.36143676       1.33345227       0.00000000
Si       1.39640162      -1.33722494      -1.34809822       0.00000000
Si      -1.38311875      -1.33740087       1.38115372       0.00000000
Si       0.08578428      -2.63110267       2.65249200       0.00000000
Si      -2.67761990      -0.00234576      -2.68315513       0.00000000
Si      -2.62804943       2.75186973      -0.00122536       0.00000000
Si       0.02570562      -2.70899444      -2.67825370       0.00000000
Si      -2.61555500       0.09246204       2.79711344       0.00000000
Si       2.72749988       0.02580336       2.70920858       0.00000000
