10
Lattice="16.290000149 0.0 0.0 0.0 16.290000149 0.0 0.0 0.0 29.1751946751" Properties=species:S:1:pos:R:3:initial_magmoms:R:1 pbc="T T T"
Si       1.37951215      -1.45091285       1.15761337       0.00000000
Si      -1.23247421      -1.36041261      -1.44399709       0.00000000
Si       1.40924140       1.29649342      -1.38728051       0.00000000
Si      -1.21864155       1.28452027       1.60457736       0.00000000
H        1.61382751       1.51588714       2.10992090       0.00000000
Si       2.22722746       0.21081704       2.55221685       0.00000000
Si      -2.50645110       2.63404904       0.10421380       0.00000000
Si      -2.54465115      -2.69610417      -0.07670159       0.00000000
Si       0.06127972       2.63212682      -2.76303681       0.00000000
Si      -2.70137724      -0.06671081      -2.71533537       0.00000000
