10
Lattice="16.290000149 0.0 0.0 0.0 16.290000149 0.0 0.0 0.0 29.1751946751" Properties=species:S:1:pos:R:3:initial_magmoms:R:1 pbc="T T T"
Si      -2.24297012       0.51921117      -0.27544301       0.00000000
Si       0.93408327      -0.81607688      -1.99278250       0.00000000
Si       0.28460634      -1.82114741       1.57298062       0.00000000
Si       1.33157719       1.97617250       0.48588369       0.00000000
Si       2.96707692       0.79970869       1.70139845       0.00000000
Si       1.63104604      -0.60568012       3.05440365       0.00000000
Si       2.77109193      -1.98956288      -1.05538349       0.00000000
Si      -0.93729403      -1.70311137      -3.11774883       0.00000000
Si      -2.97613416       1.14948757       1.90381624       0.00000000
H       -1.97726393      -0.58363324      -3.09729702       0.00000000
