10
Lattice="16.290000149 0.0 0.0 0.0 16.290000149 0.0 0.0 0.0 29.1751946751" Properties=species:S:1:pos:R:3:initial_magmoms:R:1 pbc="T T T"
Si       1.37101528      -1.34550514      -1.33867463       0.00000000
Si       1.37831320       1.33429762       1.34599761       0.00000000
Si      -1.34928442      -1.36515088       1.35679243       0.00000000
Si      -1.34622190       1.35837424      -1.36986292       0.00000000
Si       0.00001629       2.70073541       2.65771436       0.00000000
Si      -0.01472616      -2.69581583      -2.66337435       0.00000000
Si      -2.72046260      -0.00861741       2.68966120       0.00000000
Si       2.74217718       0.01238040      -2.67673659       0.00000000
Si       2.73478151       2.69000030      -0.01053225       0.00000000
Si      -2.69347007       0.00153126      -2.73219863       0.00000000
