10
Lattice="16.290000149 0.0 0.0 0.0 16.290000149 0.0 0.0 0.0 29.1751946751" Properties=species:S:1:pos:R:3:initial_magmoms:R:1 pbc="T T T"
Si      -1.36783873      -1.34842105      -1.33969576       0.00000000
Si      -1.36497169       1.34548885       1.35279543       0.00000000
Si       1.32524038      -1.38184813       1.36198561       0.00000000
Si       1.38414975       1.33291297      -1.36793735       0.00000000
Si       0.07457562      -2.68149041      -2.62235402       0.00000000
Si       2.69576371      -0.01418859       2.68741471       0.00000000
Si      -0.00612504       2.71153568       2.68341771       0.00000000
Si      -2.69501762       2.71184519      -0.02167717       0.00000000
Si       0.05499504       2.74261701      -2.67886638       0.00000000
Si       2.71991852       2.70720254      -0.02094779       0.00000000
