10
Lattice="16.290000149 0.0 0.0 0.0 16.290000149 0.0 0.0 0.0 29.1751946751" Properties=species:S:1:pos:R:3:initial_magmoms:R:1 pbc="T T T"
Si       1.37746612       1.34039008       1.33205186       0.00000000
Si       1.37829691      -1.36643779      -1.31171675       0.00000000
Si      -1.35327547      -1.35161389       1.36157716       0.00000000
Si      -1.35391078       1.37573938      -1.33975411       0.00000000
Si      -0.05657517       2.66233988       2.61427249       0.00000000
Si      -0.00001629      -2.70073541      -2.65771436       0.00000000
Si       2.73476522      -0.01073511      -2.66824660       0.00000000
Si      -2.71622720       0.02085120      -2.69050728       0.00000000
Si       0.00649971       2.73999432      -2.67930400       0.00000000
Si       0.01008351      -2.67755474       2.74176809       0.00000000
