10
Lattice="16.290000149 0.0 0.0 0.0 16.290000149 0.0 0.0 0.0 29.1751946751" Properties=species:S:1:pos:R:3:initial_magmoms:R:1 pbc="T T T"
Si       1.53596782      -1.27516492      -1.20706533       0.00000000
Si       1.31044906       1.33009480       1.43574051       0.00000000
Si      -1.22434012      -1.44401077       1.43063193       0.00000000
Si      -1.48507786       1.18736182      -1.44700213       0.00000000
H        0.31842063      -1.79167196      -2.24039237       0.00000000
H        3.04139678       1.14023485      -0.58213266       0.00000000
Si       2.71371854       2.60397281       0.05688492       0.00000000
Si      -2.69262299       2.66193263      -0.02742468       0.00000000
Si      -0.16570188       2.50385447      -2.86118217       0.00000000
Si      -2.66810654      -0.08325819       2.71979334       0.00000000
