10
Lattice="16.290000149 0.0 0.0 0.0 16.290000149 0.0 0.0 0.0 29.1751946751" Properties=species:S:1:pos:R:3:initial_magmoms:R:1 pbc="T T T"
Si       1.24721128      -1.37158543       1.41457098       0.00000000
Si      -1.29108025       1.44432028       1.32988415       0.00000000
Si       1.90936721       0.79418638      -1.12065716       0.00000000
Si      -1.84107953      -0.88277140      -1.18440787       0.00000000
H        0.68826880      -1.82707013      -1.91735587       0.00000000
Si       1.25173990       1.21323034      -3.25182927       0.00000000
Si       2.66592368       0.05932818       2.64932066       0.00000000
Si      -2.72005535       0.05556519       2.61156795       0.00000000
Si       2.74563066      -2.60993495       0.13693961       0.00000000
Si      -3.47734488       0.84909997      -1.27039447       0.00000000
