10
Lattice="16.290000149 0.0 0.0 0.0 16.290000149 0.0 0.0 0.0 29.1751946751" Properties=species:S:1:pos:R:3:initial_magmoms:R:1 pbc="T T T"
Si       1.72388927      -1.61973100      -0.10368864       0.00000000
Si      -2.04055058      -1.03812913      -0.73495233       0.00000000
Si       1.37731951       1.75910825      -0.90731938       0.00000000
Si      -0.98580565       1.22192920       1.85644681       0.00000000
H        0.79892677      -1.45196029      -2.64519820       0.00000000
H       -0.60962068       0.57888145      -3.10073969       0.00000000
Si      -2.26156678       2.54829359       0.40340542       0.00000000
Si       2.15368463      -1.86142574       2.18309375       0.00000000
Si      -3.46159571       0.88076773      -0.78344150       0.00000000
Si       3.58797027      -0.71206849      -1.37692331       0.00000000
