10
Lattice="16.290000149 0.0 0.0 0.0 16.290000149 0.0 0.0 0.0 29.1751946751" Properties=species:S:1:pos:R:3:initial_magmoms:R:1 pbc="T T T"
Si       1.35755974       1.35070165       1.35159924       0.00000000
Si       1.42560307      -1.35633799      -1.27612302       0.00000000
Si      -1.32440959      -1.38710980       1.38106619       0.00000000
Si      -1.36407574       1.33369489      -1.39965079       0.00000000
Si       0.03720636      -2.69894351      -2.55364936       0.00000000
Si      -2.70003494       2.62114247       0.05058979       0.00000000
Si       2.69892722       2.70192458      -0.03471848       0.00000000
Si       2.70296714      -0.03038085       2.70553250       0.00000000
Si       0.01352070       2.68196933       2.73823790       0.00000000
Si      -2.70927137      -0.07157826       2.73908398       0.00000000
