10
Lattice="16.290000149 0.0 0.0 0.0 16.290000149 0.0 0.0 0.0 29.1751946751" Properties=species:S:1:pos:R:3:initial_magmoms:R:1 pbc="T T T"
Si      -0.52486543      -0.88681132      -2.09387455       0.00000000
Si      -1.42104513       1.91889686      -0.04848917       0.00000000
Si       2.04055058       1.03812913       0.73495233       0.00000000
Si      -0.70248997      -1.72719614       1.52411217       0.00000000
H        1.43092990       1.61701057      -2.36578736       0.00000000
H        2.83947735      -0.41383116      -1.91024587       0.00000000
Si      -1.96967279      -0.29377386       2.84193266       0.00000000
Si       0.23714982       1.25231005      -3.26196182       0.00000000
Si       1.05474493       2.26005833       2.59139914       0.00000000
Si      -3.08426718       1.23061177       1.46380704       0.00000000
