10
Lattice="16.290000149 0.0 0.0 0.0 16.290000149 0.0 0.0 0.0 29.1751946751" Properties=species:S:1:pos:R:3:initial_magmoms:R:1 pbc="T T T"
Si       1.41843547      -1.34741954       1.24984492       0.00000000
Si      -1.49841937       1.23834952       1.27763137       0.00000000
Si      -1.04466142      -1.85002274      -0.95231628       0.00000000
Si       0.86258809       1.72845047      -1.38333544       0.00000000
H       -2.05736186       0.78286483      -2.05429548       0.00000000
Si      -1.87641254      -0.60414398      -2.66539911       0.00000000
Si      -0.07970697       2.66926313       2.51238104       0.00000000
Si       2.64857483      -2.55668294      -0.34621620       0.00000000
Si      -0.04585635      -2.77728213       2.46873495       0.00000000
Si       2.58608639       2.66968667      -0.10705838       0.00000000
