10
Lattice="16.290000149 0.0 0.0 0.0 16.290000149 0.0 0.0 0.0 29.1751946751" Properties=species:S:1:pos:R:3:initial_magmoms:R:1 pbc="T T T"
Si      -1.35884665      -1.36604683      -1.33062228       0.00000000
Si      -1.34685721       1.34806267       1.36659529       0.00000000
Si       1.33649677      -1.37461537       1.35369986       0.00000000
Si       1.33848415       1.35703846      -1.38062856       0.00000000
Si      -2.70286940       2.67801086      -0.02080191       0.00000000
Si       2.67894102      -0.01396053       2.70760394       0.00000000
Si      -2.68889258       0.00030951      -2.70509488       0.00000000
Si       0.00612504      -2.71153568      -2.68341771       0.00000000
Si       2.69025280       2.71018361      -0.01943068       0.00000000
Si      -2.70088202      -0.02663415       2.70923775       0.00000000
