10
Lattice="16.290000149 0.0 0.0 0.0 16.290000149 0.0 0.0 0.0 29.1751946751" Properties=species:S:1:pos:R:3:initial_magmoms:R:1 pbc="T T T"
Si       1.33488406       1.33889629      -1.32959823       0.00000000
Si      -1.33152832       1.41777247       1.28665526       0.00000000
Si       1.43338969      -1.34691749       1.26217727       0.00000000
Si      -1.36388026      -1.28151672      -1.40786652       0.00000000
Si       0.05390361      -2.69121717       2.59755511       0.00000000
Si      -2.67970502       0.04343729       2.62387113       0.00000000
Si       0.05421312       2.76808316       2.61135497       0.00000000
Si       2.78026320       0.04122510       2.60102696       0.00000000
Si      -0.04541652      -2.76971868      -2.61761305       0.00000000
Si      -2.71303436      -2.67904854      -0.09881638       0.00000000
