10
Lattice="16.290000149 0.0 0.0 0.0 16.290000149 0.0 0.0 0.0 29.1751946751" Properties=species:S:1:pos:R:3:initial_magmoms:R:1 pbc="T T T"
Si      -0.34626024       0.88211980       2.13544920       0.00000000
Si      -1.85508893      -0.93103867      -1.10714029       0.00000000
Si       1.05555943       1.76265947      -1.18153703       0.00000000
Si       1.60160023      -1.77681548      -0.08953867       0.00000000
Si       2.13816026       0.34261128      -2.67974163       0.00000000
Si      -0.67188106      -2.38257542      -2.51895713       0.00000000
Si       1.27451332       2.57007332       2.20538214       0.00000000
Si       2.22953087      -2.18033507       2.05860174       0.00000000
Si       3.43306866      -0.95130343      -1.25316214       0.00000000
Si      -3.15713235      -2.16774290       0.39275647       0.00000000
