10
Lattice="16.290000149 0.0 0.0 0.0 16.290000149 0.0 0.0 0.0 29.1751946751" Properties=species:S:1:pos:R:3:initial_magmoms:R:1 pbc="T T T"
H        0.71721613       0.08211789       1.32563332       0.00000000
H       -1.39543399       0.84165544       1.63322740       0.00000000
Si       1.61054344      -0.78856633      -1.52160310       0.00000000
Si      -1.87191650      -1.46339587      -0.15906316       0.00000000
Si      -0.34160130       1.95033656      -1.37091322       0.00000000
H        1.87100426       1.71058034       0.20104627       0.00000000
H        2.52247394       1.28902771       0.24495493       0.00000000
Si      -0.80236396       0.93411748       3.03719612       0.00000000
Si       0.12461850      -1.80191837      -2.99217879       0.00000000
Si      -0.99579142      -3.24410466      -1.44233410       0.00000000
