10
Lattice="16.290000149 0.0 0.0 0.0 16.290000149 0.0 0.0 0.0 29.1751946751" Properties=species:S:1:pos:R:3:initial_magmoms:R:1 pbc="T T T"
Si       0.84711259      -1.87550030      -1.11618460       0.00000000
Si       1.48836844       1.25463952       1.37348064       0.00000000
Si      -1.39101940       1.31299030      -1.42943866       0.00000000
Si      -1.30919473      -1.36186030       1.49193193       0.00000000
H        1.38266263      -1.61668477      -2.50174377       0.00000000
H        2.65632887       0.14216283      -2.07695293       0.00000000
Si       0.00931788       2.55453315       2.71545207       0.00000000
Si      -2.79821478       2.48753189       0.04624268       0.00000000
H       -0.21618459      -0.76908349      -3.67088134       0.00000000
Si       2.53807976      -2.80256421       0.19538628       0.00000000
