10
Lattice="16.290000149 0.0 0.0 0.0 16.290000149 0.0 0.0 0.0 29.1751946751" Properties=species:S:1:pos:R:3:initial_magmoms:R:1 pbc="T T T"
Si      -1.88672411      -1.34167699      -0.38870112       0.00000000
Si       0.52396785       1.25655848      -1.93034758       0.00000000
H       -0.89564050      -0.99673624       2.06388245       0.00000000
Si       1.93135871      -1.49333689       0.31561726       0.00000000
Si      -1.61277517       1.53168681       1.07697314       0.00000000
H       -2.79756318      -1.41405346       0.82594976       0.00000000
Si       0.19530081       2.86174578       1.68075379       0.00000000
Si      -2.77614183       0.08047260      -1.97997459       0.00000000
Si      -0.01360215      -1.84482623       2.95769371       0.00000000
Si       1.55338183      -0.36694854      -3.24816195       0.00000000
