10
Lattice="16.290000149 0.0 0.0 0.0 16.290000149 0.0 0.0 0.0 29.1751946751" Properties=species:S:1:pos:R:3:initial_magmoms:R:1 pbc="T T T"
Si       1.33569368       1.34553772       1.38180724       0.00000000
Si      -1.28734984      -1.32164029       1.47423426       0.00000000
Si      -1.44389674       1.37828062      -1.27605299       0.00000000
Si       1.39242849      -1.35971002      -1.36857921       0.00000000
H        0.28705098       1.18842067      -3.29392616       0.00000000
Si      -0.10378359      -2.75136474      -2.54073321       0.00000000
Si      -0.04062726       2.65215863      -2.65490858       0.00000000
Si      -2.67574655      -2.66424581       0.19670792       0.00000000
Si       2.70728399       2.65781126       0.01864587       0.00000000
Si      -0.01402569       2.73662229       2.71563879       0.00000000
