10
Lattice="16.290000149 0.0 0.0 0.0 16.290000149 0.0 0.0 0.0 29.1751946751" Properties=species:S:1:pos:R:3:initial_magmoms:R:1 pbc="T T T"
Si      -1.32915471       1.40970403      -1.31092902       0.00000000
Si       1.33576877       1.37428957       1.34698956       0.00000000
Si       1.35123287      -1.32771646      -1.40519408       0.00000000
Si      -1.38414975      -1.33291297       1.36793735       0.00000000
Si      -2.71755142       0.06709851      -2.58845536       0.00000000
Si       2.64586597      -2.68037291       0.02663695       0.00000000
Si       2.67937450       0.01692531       2.71052146       0.00000000
Si       2.66505559       2.73184931      -0.03705250       0.00000000
Si      -0.05179063       2.73566118       2.67072650       0.00000000
Si      -2.75198848      -2.68133402       0.02824159       0.00000000
