10
Lattice="16.290000149 0.0 0.0 0.0 16.290000149 0.0 0.0 0.0 29.1751946751" Properties=species:S:1:pos:R:3:initial_magmoms:R:1 pbc="T T T"
Si      -1.35452980      -1.35549091       1.33394825       0.00000000
Si      -1.37375200       1.34572343      -1.33826618       0.00000000
Si       1.30751686       1.31326560       1.44609770       0.00000000
Si       1.35285193      -1.38453598      -1.33674907       0.00000000
Si       0.04087161      -2.80616430       2.52712619       0.00000000
Si       2.67411755       2.67294467       0.06961201       0.00000000
Si      -0.00972513       2.69369813      -2.68858171       0.00000000
Si       2.71156826      -0.01855431      -2.67764102       0.00000000
Si      -2.72388350      -0.02420694      -2.68931109       0.00000000
Si      -2.72383463       2.69521310       0.03495188       0.00000000
