10
Lattice="16.290000149 0.0 0.0 0.0 16.290000149 0.0 0.0 0.0 29.1751946751" Properties=species:S:1:pos:R:3:initial_magmoms:R:1 pbc="T T T"
Si       2.23223501      -0.50456646       0.32731651       0.00000000
Si      -1.05117742       0.66999793       2.06995089       0.00000000
Si      -0.05517423       2.06825987      -1.28808484       0.00000000
Si      -0.65104615      -1.77134204      -1.58651791       0.00000000
Si      -2.36279936       1.98060664      -0.93170984       0.00000000
H       -0.66169981      -2.91033885       1.53931245       0.00000000
Si       2.79231780      -1.54015435      -1.68230008       0.00000000
Si      -3.11880198       1.39348897       1.22074850       0.00000000
Si       3.47560185       1.28202138      -0.51537981       0.00000000
Si       1.17154423      -3.22810788      -1.75223302       0.00000000
