10
Lattice="16.290000149 0.0 0.0 0.0 16.290000149 0.0 0.0 0.0 29.1751946751" Properties=species:S:1:pos:R:3:initial_magmoms:R:1 pbc="T T T"
Si      -1.33576877      -1.37428957      -1.34698956       0.00000000
Si       1.34360573      -1.35736426       1.36353190       0.00000000
Si       1.32928682       1.35755974      -1.38404206       0.00000000
Si      -1.38755941       1.36137160       1.32373693       0.00000000
Si      -2.66492348       0.03541446      -2.65791859       0.00000000
Si      -0.03579076       2.71451675       2.68493482       0.00000000
Si       2.69039778       2.71248050      -0.02996292       0.00000000
Si       2.69155437       0.00446346       2.71399331       0.00000000
Si       2.70295737      -2.71231760       0.00919019       0.00000000
Si      -2.71991852      -2.70720254       0.02094779       0.00000000
