10
Lattice="16.290000149 0.0 0.0 0.0 16.290000149 0.0 0.0 0.0 29.1751946751" Properties=species:S:1:pos:R:3:initial_magmoms:R:1 pbc="T T T"
Si       1.38370519       1.28203930       1.37477281       0.00000000
Si      -1.63549973       1.17646381      -1.21551476       0.00000000
Si       1.25182135      -1.34154016      -1.48742757       0.00000000
Si      -1.33603088      -1.40538881       1.35300520       0.00000000
Si      -2.96707692      -0.79970869      -1.70139845       0.00000000
Si      -2.68247058      -2.62085610      -0.12841783       0.00000000
Si      -0.03797199       2.66576078       2.65902987       0.00000000
Si       2.61154766      -2.72227031      -0.08757256       0.00000000
Si       2.58794345      -0.11433951       2.81708065       0.00000000
Si      -2.76628898      -0.09309735       2.70285393       0.00000000
