10
Lattice="16.290000149 0.0 0.0 0.0 16.290000149 0.0 0.0 0.0 29.1751946751" Properties=species:S:1:pos:R:3:initial_magmoms:R:1 pbc="T T T"
Si       0.83844631       1.92564906      -1.02040243       0.00000000
Si      -1.61375257       0.17780535       1.67862400       0.00000000
Si       1.76873564      -1.16155846       1.02200707       0.00000000
Si      -1.55970235      -0.78545494      -1.59156522       0.00000000
H       -0.20152359       3.04512719      -0.99995062       0.00000000
Si      -2.04540500       2.46552736       1.37893640       0.00000000
Si       0.59435695      -2.78609502       2.18933578       0.00000000
Si       1.11606049       1.18710118      -3.22686406       0.00000000
Si      -2.47181204      -2.62431902      -0.42134816       0.00000000
Si      -0.41176233      -0.65803456      -3.65057541       0.00000000
