10
Lattice="16.290000149 0.0 0.0 0.0 16.290000149 0.0 0.0 0.0 29.1751946751" Properties=species:S:1:pos:R:3:initial_magmoms:R:1 pbc="T T T"
Si       1.36007981       1.35058762      -1.35323305       0.00000000
Si       1.37003300      -1.34229601       1.35725923       0.00000000
Si      -1.33851491       1.36291915       1.37266373       0.00000000
Si      -1.34831191      -1.37823175      -1.35133667       0.00000000
Si      -2.68796894      -0.04735503       2.67793277       0.00000000
Si       2.66839488      -2.70053993      -0.05980915       0.00000000
Si      -0.02876651       2.69959511      -2.68350523       0.00000000
Si      -2.69125952      -0.02003670      -2.72003257       0.00000000
Si       2.67805485      -0.01242927      -2.74383953       0.00000000
Si       2.72687598       0.03925890       2.70754559       0.00000000
