10
Lattice="16.290000149 0.0 0.0 0.0 16.290000149 0.0 0.0 0.0 29.1751946751" Properties=species:S:1:pos:R:3:initial_magmoms:R:1 pbc="T T T"
Si      -1.36765954       1.34716672      -1.34448050       0.00000000
Si      -1.37357281      -1.34372953       1.34237988       0.00000000
Si       1.35496963      -1.35303112      -1.36417375       0.00000000
Si       1.35811360       1.36270738       1.35702583       0.00000000
Si       0.01182654       2.69146640      -2.67985833       0.00000000
Si      -0.01117494      -2.73877256       2.64557748       0.00000000
Si       2.71920827      -2.69448005      -0.00338432       0.00000000
Si       2.70972749       0.02337615      -2.70582425       0.00000000
Si      -2.72658765       0.02612916       2.69158676       0.00000000
Si      -2.73184931      -2.69729822      -0.01359564       0.00000000
