10
Lattice="16.290000149 0.0 0.0 0.0 16.290000149 0.0 0.0 0.0 29.1751946751" Properties=species:S:1:pos:R:3:initial_magmoms:R:1 pbc="T T T"
Si       0.88203835      -0.84808999       0.89381126       0.00000000
H       -1.90192268      -0.41731722      -1.23793269       0.00000000
Si       0.89564050       0.99673624      -2.06388245       0.00000000
Si      -0.99108361      -0.34494075      -2.45258357       0.00000000
Si      -0.71713468       2.52842305      -0.98690931       0.00000000
Si      -1.44992404       2.18110233       1.27451838       0.00000000
Si       1.91488952      -2.33546474      -0.57804813       0.00000000
Si      -0.51733782      -2.07616052       2.32100344       0.00000000
Si       2.77294899       0.46665963       1.52192403       0.00000000
Si       2.82699921      -0.49660065      -1.74826519       0.00000000
