10
Lattice="16.290000149 0.0 0.0 0.0 16.290000149 0.0 0.0 0.0 29.1751946751" Properties=species:S:1:pos:R:3:initial_magmoms:R:1 pbc="T T T"
Si      -1.16474641       0.16628832      -2.01746471       0.00000000
Si       0.21003837       1.86515615       1.42307847       0.00000000
Si       2.31088802      -0.16889472      -0.59073934       0.00000000
Si      -1.14353683      -2.07938594       0.56188507       0.00000000
H       -2.68714467       0.57262609       0.04157465       0.00000000
H       -2.19647357      -0.94319101      -1.80358136       0.00000000
Si      -3.15382059      -0.71099335       0.68952655       0.00000000
Si       1.65029593       0.71384410       2.88005852       0.00000000
Si       1.89050827      -1.98035903      -2.07899520       0.00000000
Si       0.32551004      -0.90526789      -3.44299390       0.00000000
