10
Lattice="16.290000149 0.0 0.0 0.0 16.290000149 0.0 0.0 0.0 29.1751946751" Properties=species:S:1:pos:R:3:initial_magmoms:R:1 pbc="T T T"
H       -0.88203835       0.84808999      -0.89381126       0.00000000
Si       1.03285117      -1.48737475      -1.47185940       0.00000000
Si      -1.39937617      -1.22807053       1.42719217       0.00000000
Si       1.89091064       1.31474962       0.62811277       0.00000000
Si       1.94496086       0.35148933      -2.64207645       0.00000000
Si       0.01360215       1.84482623      -2.95769371       0.00000000
H       -2.78396103       0.43077276      -2.13174395       0.00000000
Si       2.14273775       0.79219900       2.92661104       0.00000000
Si       0.00161271      -2.65321748       2.65205437       0.00000000
Si       2.52853382      -2.81129565      -0.18170311       0.00000000
