10
Lattice="16.290000149 0.0 0.0 0.0 16.290000149 0.0 0.0 0.0 29.1751946751" Properties=species:S:1:pos:R:3:initial_magmoms:R:1 pbc="T T T"
H       -1.13132422       0.06222780       1.00502711       0.00000000
Si       0.22450878      -2.13475565      -0.91233751       0.00000000
Si       2.06291675       0.69361192       0.90093001       0.00000000
Si      -0.22662648       1.51301521      -1.83768716       0.00000000
H       -0.46102329       0.98318296       2.62299588       0.00000000
H       -2.05987052       1.83078425       1.45385830       0.00000000
Si       2.34916463      -1.54943965      -1.91453462       0.00000000
H        2.43711434      -2.37451187       0.65962198       0.00000000
Si       3.31960881       0.44719308      -1.03811178       0.00000000
Si       1.72348202       2.81440704       1.83313583       0.00000000
