10
Lattice="16.290000149 0.0 0.0 0.0 16.290000149 0.0 0.0 0.0 29.1751946751" Properties=species:S:1:pos:R:3:initial_magmoms:R:1 pbc="T T T"
Si       1.34627077       1.29119428      -1.37044642       0.00000000
Si      -1.52775766       1.26353386       1.21392150       0.00000000
Si       1.03171087      -0.82668493       1.95371691       0.00000000
Si      -1.41309235      -1.39360951      -1.29914224       0.00000000
Si      -0.79715116      -2.12154446       2.58961945       0.00000000
Si      -2.44920152      -0.46804428       2.49211595       0.00000000
Si       2.60121980       2.60999034       0.09969164       0.00000000
Si      -0.07925085       2.65589719      -2.66696290       0.00000000
Si       2.71083521      -0.07856667      -2.71431424       0.00000000
Si      -0.07446159      -2.72420930      -2.70745807       0.00000000
