10
Lattice="16.290000149 0.0 0.0 0.0 16.290000149 0.0 0.0 0.0 29.1751946751" Properties=species:S:1:pos:R:3:initial_magmoms:R:1 pbc="T T T"
Si      -2.05674284       0.61050196      -0.89232333       0.00000000
Si       1.02941398      -1.62350703      -1.31781437       0.00000000
Si      -0.52396785      -1.25655848       1.93034758       0.00000000
Si       1.51646869       1.85097081       0.07153758       0.00000000
Si       2.31961457      -0.18517006      -2.59910139       0.00000000
Si      -3.30010968      -1.17608588      -0.04962701       0.00000000
Si       2.55533087      -2.62247500       0.18695465       0.00000000
Si       0.77822218       3.17391431      -1.72031535       0.00000000
Si      -2.13674303       0.27512833       3.00732072       0.00000000
Si       0.89451649       2.92697419       2.11963624       0.00000000
