10
Lattice="16.290000149 0.0 0.0 0.0 16.290000149 0.0 0.0 0.0 29.1751946751" Properties=species:S:1:pos:R:3:initial_magmoms:R:1 pbc="T T T"
Si      -1.39448917      -1.31632975      -1.35196102       0.00000000
Si      -1.34330599       1.30438918       1.41826456       0.00000000
Si       1.35158131      -1.39351177       1.34774812       0.00000000
Si       1.30680010       1.34508160      -1.43871054       0.00000000
Si       2.69199094       2.63720441      -0.00784813       0.00000000
Si      -2.68714955       2.64266156       0.04355857       0.00000000
Si      -0.07828974      -2.75185344      -2.64394367       0.00000000
Si       2.71210583      -0.10049301      -2.69098283       0.00000000
Si       0.01602936       2.65044818       2.78270089       0.00000000
Si       2.71477902      -0.06211377       2.72715132       0.00000000
