10
Lattice="16.290000149 0.0 0.0 0.0 16.290000149 0.0 0.0 0.0 29.1751946751" Properties=species:S:1:pos:R:3:initial_magmoms:R:1 pbc="T T T"
Si       1.21754719       0.51650703       1.03332705       0.00000000
Si      -1.27410607      -0.57751309      -0.92747944       0.00000000
Si      -0.31842063       1.79167196       2.24039237       0.00000000
Si      -0.04505814      -2.42966981      -1.59494954       0.00000000
Si       2.88076924       1.20479212      -0.47896917       0.00000000
Si      -3.06486579      -1.17327097       0.50613128       0.00000000
Si       2.33214158      -1.00787860       2.41145267       0.00000000
Si      -2.30275442       0.74867212      -2.55163335       0.00000000
Si      -1.80349850       2.97903378       0.79339024       0.00000000
H       -0.32837382       0.64433467      -3.63347874       0.00000000
