10
Lattice="16.290000149 0.0 0.0 0.0 16.290000149 0.0 0.0 0.0 29.1751946751" Properties=species:S:1:pos:R:3:initial_magmoms:R:1 pbc="T T T"
H        0.53555004       0.25881552      -1.38555917       0.00000000
Si       1.69096718      -0.92706391       1.31157088       0.00000000
Si      -0.84711259       1.87550030       1.11618460       0.00000000
Si      -1.80656102      -1.58612473      -0.11422089       0.00000000
H        1.80921629       2.01766313      -0.96076834       0.00000000
H       -1.06329718       1.10641681      -2.55469675       0.00000000
H       -0.13475088      -0.66213964      -3.00352794       0.00000000
Si      -2.15630732       0.51363999       2.60811653       0.00000000
Si       2.66738978      -2.38231478      -0.19591143       0.00000000
Si       0.42495723      -2.41188113       2.63586214       0.00000000
