10
Lattice="16.290000149 0.0 0.0 0.0 16.290000149 0.0 0.0 0.0 29.1751946751" Properties=species:S:1:pos:R:3:initial_magmoms:R:1 pbc="T T T"
Si       0.73824652      -1.32294349       1.79185293       0.00000000
Si      -1.75690910       0.97090030       1.26235232       0.00000000
Si       1.39149181       1.82319311      -0.75307012       0.00000000
Si       0.10762803      -1.73183879      -1.80594455       0.00000000
H       -2.14651703      -0.25143615      -1.31087067       0.00000000
Si       2.88295536       0.55840492      -2.03634106       0.00000000
Si       2.73150722      -2.21136426       0.81320020       0.00000000
Si      -0.77822218      -3.17391431       1.72031535       0.00000000
Si      -2.79028155       0.59013784      -2.39073215       0.00000000
Si       1.54139239      -3.35908437      -0.87878604       0.00000000
