10
Lattice="16.290000149 0.0 0.0 0.0 16.290000149 0.0 0.0 0.0 29.1751946751" Properties=species:S:1:pos:R:3:initial_magmoms:R:1 pbc="T T T"
Si       1.30085425      -1.34827444       1.41925652       0.00000000
Si      -1.37788966       1.34907265       1.35043224       0.00000000
Si      -1.43057152      -1.40116807      -1.24330092       0.00000000
Si       1.42897510       1.38875509      -1.28168381       0.00000000
Si      -2.63480978      -0.00478926      -2.68560876       0.00000000
Si       2.72005535      -0.05556519      -2.61156795       0.00000000
Si       0.05341491       2.65196315      -2.69965370       0.00000000
Si      -0.11191230      -2.72307552      -2.64221066       0.00000000
Si       2.63238257      -2.76604691       0.13260126       0.00000000
Si      -0.03064149       2.70591563       2.71276795       0.00000000
