10
Lattice="16.290000149 0.0 0.0 0.0 16.290000149 0.0 0.0 0.0 29.1751946751" Properties=species:S:1:pos:R:3:initial_magmoms:R:1 pbc="T T T"
Si       1.30293937      -1.26842086       1.47786949       0.00000000
Si      -0.86447773      -1.93997612      -1.03372091       0.00000000
Si      -1.44376642       1.36075258       1.28916141       0.00000000
Si       1.22434012       1.44401077      -1.43063193       0.00000000
Si       2.55787211      -2.67441077       0.11681748       0.00000000
Si       2.53478918       2.77410558       0.00510858       0.00000000
Si      -0.09834273       2.76421755       2.63186805       0.00000000
Si       2.76030795       0.16884585      -2.63769726       0.00000000
Si      -1.52210503      -1.52093215      -3.16489303       0.00000000
Si      -0.10792125      -2.67483431       2.73625690       0.00000000
