10
Lattice="16.290000149 0.0 0.0 0.0 16.290000149 0.0 0.0 0.0 29.1751946751" Properties=species:S:1:pos:R:3:initial_magmoms:R:1 pbc="T T T"
Si       1.46890303      -1.29370180       1.27133828       0.00000000
Si      -1.39988116      -1.41683091      -1.25762594       0.00000000
Si      -1.23243625       1.42986291       1.41595972       0.00000000
Si       1.38311875       1.33740087      -1.38115372       0.00000000
Si       0.15672609      -2.62939336       2.63863378       0.00000000
Si      -2.58491351       2.74055632      -0.00994874       0.00000000
Si      -2.66110184      -0.02462396      -2.68782316       0.00000000
Si       0.03013650      -2.69846296      -2.66985124       0.00000000
Si       2.70137724       0.06671081       2.71533537       0.00000000
Si       2.76265696       2.69883763      -0.04770144       0.00000000
