10
Lattice="16.290000149 0.0 0.0 0.0 16.290000149 0.0 0.0 0.0 29.1751946751" Properties=species:S:1:pos:R:3:initial_magmoms:R:1 pbc="T T T"
Si       1.28813339       1.40980177       1.31886468       0.00000000
Si      -1.32245479       1.37420812      -1.33444423       0.00000000
Si       1.40427295      -1.31849632      -1.31340891       0.00000000
Si      -1.31913163      -1.32651100       1.44107957       0.00000000
Si      -2.55998981       2.73997803       0.08384951       0.00000000
Si       0.01286910      -2.69397506      -2.62521319       0.00000000
Si       2.77495266      -2.55733454       0.13061735       0.00000000
Si      -2.71031393       0.01541034      -2.66462888       0.00000000
Si       2.73554715       0.07926714      -2.65511777       0.00000000
Si       2.70558983       0.18639018       2.69578799       0.00000000
