10
Lattice="16.290000149 0.0 0.0 0.0 16.290000149 0.0 0.0 0.0 29.1751946751" Properties=species:S:1:pos:R:3:initial_magmoms:R:1 pbc="T T T"
Si      -1.37829691       1.36643779       1.31171675       0.00000000
Si      -1.37831320      -1.33429762      -1.34599761       0.00000000
Si       1.35646831       1.35570268      -1.35652985       0.00000000
Si       1.35516511      -1.35110890       1.36860838       0.00000000
Si      -0.00083079       2.70682787       2.64376862       0.00000000
Si      -0.00729792      -2.67980276      -2.68467224       0.00000000
Si      -2.73157238       0.01482390       2.67329391       0.00000000
Si      -0.00757485       2.72463284      -2.68826079       0.00000000
Si       2.71538012      -2.70298343       0.01590048       0.00000000
Si      -2.72759762      -2.69944850       0.01079482       0.00000000
