10
Lattice="16.290000149 0.0 0.0 0.0 16.290000149 0.0 0.0 0.0 29.1751946751" Properties=species:S:1:pos:R:3:initial_magmoms:R:1 pbc="T T T"
Si      -0.08293239       0.69506173       2.22957713       0.00000000
Si       0.73013410      -2.18965132      -0.40235511       0.00000000
Si       1.93707650       1.03208554      -0.90183444       0.00000000
Si      -2.20398815       0.37577772      -0.80663578       0.00000000
H        2.44641593      -0.24923700       1.49662914       0.00000000
Si       2.62736525      -1.63624581       0.88552551       0.00000000
Si      -2.14899311       2.66862782      -0.14319186       0.00000000
Si       1.46292346      -1.84233060      -2.66378280       0.00000000
Si       1.00967050       2.07422201      -2.73663326       0.00000000
Si       0.23991912       0.02749752      -3.61600280       0.00000000
