10
Lattice="16.290000149 0.0 0.0 0.0 16.290000149 0.0 0.0 0.0 29.1751946751" Properties=species:S:1:pos:R:3:initial_magmoms:R:1 pbc="T T T"
Si       1.72349831       0.94123621       1.27627706       0.00000000
Si      -0.86258809      -1.72845047       1.38333544       0.00000000
Si       0.73316404      -0.63027640      -2.17925925       0.00000000
Si      -1.69885154       1.67567087       0.12573867       0.00000000
H       -2.91994995      -0.94558564      -0.67096004       0.00000000
Si       0.46856556       2.34722612       2.63732907       0.00000000
Si      -2.36100746      -0.49010094       2.66096681       0.00000000
Si      -0.84501118      -2.31272064      -2.62222624       0.00000000
Si       2.97613416      -1.14948757      -1.90381624       0.00000000
Si      -2.35647884       2.09471483      -2.00543345       0.00000000
