10
Lattice="16.290000149 0.0 0.0 0.0 16.290000149 0.0 0.0 0.0 29.1751946751" Properties=species:S:1:pos:R:3:initial_magmoms:R:1 pbc="T T T"
Si      -1.23013936       1.20926340       1.59606112       0.00000000
Si      -1.94751839      -0.83785987      -1.06115960       0.00000000
Si       1.29951847      -1.51817914       1.33268205       0.00000000
Si       1.47475375       1.31449843      -1.36795486       0.00000000
H       -0.88047451      -2.51717969      -1.87741211       0.00000000
Si      -2.64857483       2.55668294       0.34621620       0.00000000
Si       2.63836426      -0.28113282      -2.65376404       0.00000000
Si       2.82119345       2.52996571       0.11346817       0.00000000
Si      -3.69323625       0.70666021      -0.60610008       0.00000000
Si       2.68470931      -0.22605633       2.76354446       0.00000000
