10
Lattice="16.290000149 0.0 0.0 0.0 16.290000149 0.0 0.0 0.0 29.1751946751" Properties=species:S:1:pos:R:3:initial_magmoms:R:1 pbc="T T T"
Si      -1.34384356       1.33827238      -1.37470600       0.00000000
Si       1.34330599      -1.30438918      -1.41826456       0.00000000
Si       1.35933535       1.34605900       1.36443633       0.00000000
Si      -1.35475786      -1.37640727       1.34165050       0.00000000
Si      -2.69790095       2.66809025       0.02596592       0.00000000
Si       0.12044826       2.76813496      -2.59359603       0.00000000
Si      -2.77329108      -0.11681559      -2.59735088       0.00000000
Si      -0.05118318      -2.62071893      -2.77022558       0.00000000
Si       2.69488730      -2.69790095      -0.07051645       0.00000000
Si      -2.70972749      -0.02337615       2.70582425       0.00000000
