10
Lattice="16.290000149 0.0 0.0 0.0 16.290000149 0.0 0.0 0.0 29.1751946751" Properties=species:S:1:pos:R:3:initial_magmoms:R:1 pbc="T T T"
Si      -1.31632193      -1.38163473      -1.36157716       0.00000000
Si       1.34515979      -1.36358541       1.35352481       0.00000000
Si      -1.38136269       1.34752673       1.33914144       0.00000000
Si       1.32341264       1.38191492      -1.36414458       0.00000000
Si      -2.63202745       0.04788446      -2.64519820       0.00000000
Si       2.67862663      -0.01353699      -2.65389241       0.00000000
Si      -0.01083937       2.71518627       2.66457053       0.00000000
Si       2.66194567      -2.73451925      -0.03600219       0.00000000
Si       2.70206794      -0.00094482       2.70363612       0.00000000
Si      -0.03047533      -2.71169696       2.70424879       0.00000000
