10
Lattice="16.290000149 0.0 0.0 0.0 16.290000149 0.0 0.0 0.0 29.1751946751" Properties=species:S:1:pos:R:3:initial_magmoms:R:1 pbc="T T T"
Si       1.25669206      -0.24641883      -1.93904179       0.00000000
Si      -0.33943473       2.12079512       0.93220582       0.00000000
Si       1.22536639      -1.32339961       1.51445518       0.00000000
Si      -2.06291675      -0.69361192      -0.90093001       0.00000000
H        2.56964978      -0.70916887      -1.33742010       0.00000000
H       -2.52394004       0.28957104       1.72206587       0.00000000
H        0.37419759      -3.06812379      -0.24130804       0.00000000
H       -1.25027380       2.04841865       2.14685670       0.00000000
H       -3.19424097      -0.63138412       0.10409709       0.00000000
Si       0.28624788      -2.24305157      -2.81546464       0.00000000
