10
Lattice="16.290000149 0.0 0.0 0.0 16.290000149 0.0 0.0 0.0 29.1751946751" Properties=species:S:1:pos:R:3:initial_magmoms:R:1 pbc="T T T"
Si      -1.39286017      -1.34234488      -1.32954280       0.00000000
Si      -1.35935164       1.35495334       1.35434171       0.00000000
Si       1.33002964      -1.37013562       1.37225528       0.00000000
Si       1.35899326       1.34402275      -1.37356817       0.00000000
Si      -0.03764619      -2.73779679      -2.61929063       0.00000000
Si       2.70624143       2.70086573      -0.01123245       0.00000000
Si      -2.70295737       2.71231760      -0.00919019       0.00000000
Si       2.68956047      -2.72765953       0.03247199       0.00000000
Si       2.70317891      -0.02265939       2.71542289       0.00000000
Si      -0.01140300       2.71678106       2.70480312       0.00000000
