10
Lattice="16.28999089631971 0.0 0.0 0.0 16.28999089631971 0.0 0.0 0.0 34.24959146834617" Properties=species:S:1:pos:R:3:initial_magmoms:R:1 pbc="T T T"
Si      -1.35329175       1.35922131       1.36347700       0.00000000
Si       1.36355445      -1.35790182       1.36268926       0.00000000
Si      -1.37241621      -1.34104167      -1.37522119       0.00000000
Si       1.37950236       1.37459907      -1.37680352       0.00000000
Si       0.07118730      -2.58860155      -2.72598816       0.00000000
Si      -2.70876636       2.70855459       0.00537719       0.00000000
Si      -2.71072116      -2.71627442       0.00212348       0.00000000
Si      -2.71046052      -0.00091224       2.71941908       0.00000000
Si       2.71762812       2.71450044       0.00743217       0.00000000
Si       0.00418653       2.71453302       2.71986433       0.00000000
