10
Lattice="16.28999089631971 0.0 0.0 0.0 16.28999089631971 0.0 0.0 0.0 34.24959146834617" Properties=species:S:1:pos:R:3:initial_magmoms:R:1 pbc="T T T"
Si       0.83481363       1.73540954      -1.44221685       0.00000000
Si      -1.70957034      -0.89399895      -1.52801213       0.00000000
Si       1.62987966      -1.90611312      -0.06860197       0.00000000
Si       0.08658135       0.79172984       2.44809367       0.00000000
Si      -2.91387375       1.05394997       1.36844319       0.00000000
Si       2.11449087       0.32716347      -2.88607769       0.00000000
Si      -0.28013913      -1.41365013       3.32717842       0.00000000
Si       2.40986115       2.85166550       0.03192064       0.00000000
Si       3.37854600      -0.96714202      -1.33217285       0.00000000
Si      -0.58389876      -2.40764964      -2.88998214       0.00000000
