10
Lattice="16.28999089631971 0.0 0.0 0.0 16.28999089631971 0.0 0.0 0.0 34.24959146834617" Properties=species:S:1:pos:R:3:initial_magmoms:R:1 pbc="T T T"
Si       1.27967724      -1.40824607      -1.44386083       0.00000000
Si      -0.83481363      -1.73540954       1.44221685       0.00000000
Si      -1.44290304       1.31250159      -1.42396181       0.00000000
Si       1.57504752       1.11625596       1.47413749       0.00000000
Si      -2.54438397      -2.62940848      -0.08579527       0.00000000
Si       2.54373237      -2.70255156       0.11004400       0.00000000
Si       2.65202829       2.67276546      -0.04551773       0.00000000
Si       2.63738358      -0.05795982      -2.81353701       0.00000000
Si       3.46952565      -0.84795966       1.48222040       0.00000000
Si      -0.07923456       2.66258421      -2.81069429       0.00000000
