10
Lattice="16.28999089631971 0.0 0.0 0.0 16.28999089631971 0.0 0.0 0.0 34.24959146834617" Properties=species:S:1:pos:R:3:initial_magmoms:R:1 pbc="T T T"
Si      -1.35547461       1.34933328      -1.35809981       0.00000000
Si       1.35747828       1.35531171       1.35638733       0.00000000
Si      -1.35716877      -1.36013355       1.35594208       0.00000000
Si       1.35329175      -1.35922131      -1.36347700       0.00000000
Si       0.00573408       2.69677692      -2.72795409       0.00000000
Si      -2.71376739       2.71331127      -0.00058224       0.00000000
Si      -0.00040725       2.71300176       2.71411039       0.00000000
Si       2.71661814       2.71249677      -0.00047949       0.00000000
Si       2.71515204      -0.00254124       2.71404189       0.00000000
Si      -2.71591767      -0.00175932       2.71400764       0.00000000
