10
Lattice="16.28999089631971 0.0 0.0 0.0 16.28999089631971 0.0 0.0 0.0 34.24959146834617" Properties=species:S:1:pos:R:3:initial_magmoms:R:1 pbc="T T T"
Si       0.48713616       2.26804041       0.61447226       0.00000000
Si      -2.40505560       0.00480555       0.45387584       0.00000000
Si       1.43979165      -0.67267926       1.86578179       0.00000000
Si       1.05340914      -1.26415287      -2.05093518       0.00000000
Si       1.06375329      -2.95329555       1.46468460       0.00000000
Si      -1.26987066      -3.32408853       0.36523785       0.00000000
Si      -1.71341478       3.26059011      -0.01650831       0.00000000
Si      -2.76877872      -1.89749178       1.70850758       0.00000000
Si       2.28995046       2.95767756      -0.80914705       0.00000000
Si      -2.48640786       2.27305773      -2.14529286       0.00000000
