10
Lattice="16.28999089631971 0.0 0.0 0.0 16.28999089631971 0.0 0.0 0.0 34.24959146834617" Properties=species:S:1:pos:R:3:initial_magmoms:R:1 pbc="T T T"
Si      -2.13615657      -0.14302620      -0.89816179       0.00000000
Si       1.81907172       0.51746814      -1.44420333       0.00000000
Si       0.03973131       1.63587438       1.76416803       0.00000000
Si       1.08159084      -2.33610003       0.42561991       0.00000000
Si       2.72455137      -1.14666939       1.70952962       0.00000000
Si       1.21700961       0.07242534       3.21265941       0.00000000
Si      -2.96085411      -1.28616066       1.67019052       0.00000000
Si       0.68688414       3.59008794       0.20131921       0.00000000
Si       1.76052546      -1.42817688      -2.96673552       0.00000000
Si       1.12730058       2.89409769      -2.08042410       0.00000000
