10
Lattice="16.28999089631971 0.0 0.0 0.0 16.28999089631971 0.0 0.0 0.0 34.24959146834617" Properties=species:S:1:pos:R:3:initial_magmoms:R:1 pbc="T T T"
Si       1.32871014      -1.40224320       1.32964523       0.00000000
Si      -1.40134725       1.34651511       1.32901504       0.00000000
Si      -1.36249560      -1.18172547      -1.56346188       0.00000000
Si       1.57001391       1.07665497      -1.57839471       0.00000000
Si       2.68092675      -0.02920797       2.69682804       0.00000000
Si       2.64179817       2.73432537      -0.23123967       0.00000000
Si      -0.03376917       2.68736130       2.69991050       0.00000000
Si      -2.25815238       0.60217614      -3.02742724       0.00000000
Si       2.87849187      -2.52019332      -0.13117258       0.00000000
Si      -2.74914601      -0.03080439       2.69487581       0.00000000
