10
Lattice="16.28999089631971 0.0 0.0 0.0 16.28999089631971 0.0 0.0 0.0 34.24959146834617" Properties=species:S:1:pos:R:3:initial_magmoms:R:1 pbc="T T T"
Si      -1.32871014       1.40224320      -1.32964523       0.00000000
Si      -1.36120869      -1.34744364       1.36985428       0.00000000
Si       1.35221661       1.37303523       1.36718281       0.00000000
Si       1.54978173      -1.11795012      -1.46081782       0.00000000
Si      -2.71164969      -2.69355150      -0.01110030       0.00000000
Si       2.72706003      -2.68139916      -0.01232643       0.00000000
Si       0.24130377       2.47889817      -2.90803995       0.00000000
Si       2.19693456       0.83626344      -3.02366663       0.00000000
Si      -0.00573408      -2.69677692       2.72795409       0.00000000
Si       2.71088406       0.01571985       2.72747459       0.00000000
