10
Lattice="16.28999089631971 0.0 0.0 0.0 16.28999089631971 0.0 0.0 0.0 34.24959146834617" Properties=species:S:1:pos:R:3:initial_magmoms:R:1 pbc="T T T"
Si      -1.35627282      -1.35798327       1.35696957       0.00000000
Si       1.35799956       1.35718506       1.35638733       0.00000000
Si      -1.35570267       1.35842310      -1.35775731       0.00000000
Si       1.35899325      -1.35814617      -1.36083978       0.00000000
Si      -2.71384884       2.71337643      -0.00116449       0.00000000
Si      -2.71272483      -2.71464705      -0.00065074       0.00000000
Si      -2.71422351      -0.00022806       2.71414464       0.00000000
Si       0.00063531      -2.71495656       2.71404189       0.00000000
Si       2.71546155       0.00001629       2.71400764       0.00000000
Si       0.00096111       2.71539639       2.71445289       0.00000000
