10
Lattice="16.28999089631971 0.0 0.0 0.0 16.28999089631971 0.0 0.0 0.0 34.24959146834617" Properties=species:S:1:pos:R:3:initial_magmoms:R:1 pbc="T T T"
Si      -1.28922318       1.31088888      -1.49835196       0.00000000
Si      -1.81587888      -0.77786379       1.32682991       0.00000000
Si       1.40699988      -1.40133096      -1.48403563       0.00000000
Si       1.63745451       1.38289068       1.41670089       0.00000000
Si      -1.04288580       0.20966859       3.45561446       0.00000000
Si      -2.73442311       2.56903074      -0.07850011       0.00000000
Si      -2.67372657      -2.77448022       0.04579173       0.00000000
Si      -2.64492585      -0.05491359      -2.86703490       0.00000000
Si       0.06577902       2.65957056      -2.86580192       0.00000000
Si      -3.66279021       0.78345126       1.15414338       0.00000000
