10
Lattice="16.28999089631971 0.0 0.0 0.0 16.28999089631971 0.0 0.0 0.0 34.24959146834617" Properties=species:S:1:pos:R:3:initial_magmoms:R:1 pbc="T T T"
Si      -1.30463352       1.75179402       0.76267033       0.00000000
Si       2.22609366       0.79092837       0.13532021       0.00000000
Si      -0.18412587      -1.62973305       1.71950170       0.00000000
Si      -0.69621831      -0.31475538      -2.26910520       0.00000000
Si       2.04190263      -1.98452925       2.34352961       0.00000000
Si      -3.48553872       0.89013447       1.06927284       0.00000000
Si      -0.53726049       2.33548101       2.90378474       0.00000000
Si      -0.02057427      -3.72902535       0.65896251       0.00000000
Si      -0.79925256       3.67386741      -0.51888160       0.00000000
Si      -3.01871619      -0.51916230      -2.32191810       0.00000000
