10
Lattice="16.28999089631971 0.0 0.0 0.0 16.28999089631971 0.0 0.0 0.0 34.24959146834617" Properties=species:S:1:pos:R:3:initial_magmoms:R:1 pbc="T T T"
Si       1.58604327       1.39373982       0.95481064       0.00000000
Si       0.98691336      -1.58140062      -1.40200781       0.00000000
Si      -1.19534391      -1.42807914       1.46499284       0.00000000
Si      -1.32256881       1.62637731      -1.14260126       0.00000000
Si      -2.83836960       2.03649435       0.64115271       0.00000000
Si      -3.24881244      -1.42289892       0.26125603       0.00000000
Si       1.56582738      -0.25747974      -3.26600862       0.00000000
Si       3.09632175       0.03451851       2.07686214       0.00000000
Si       0.55737864       2.33579052       2.88868066       0.00000000
Si      -0.73363644      -3.16649907      -1.99990326       0.00000000
