10
Lattice="16.28999089631971 0.0 0.0 0.0 16.28999089631971 0.0 0.0 0.0 34.24959146834617" Properties=species:S:1:pos:R:3:initial_magmoms:R:1 pbc="T T T"
Si       0.40601196      -0.91657314      -2.14536136       0.00000000
Si      -0.12540042      -1.73237634       1.65963338       0.00000000
Si      -2.29952898       0.70227819       0.11980514       0.00000000
Si       1.72054980       1.58509845       0.59789545       0.00000000
Si      -3.36191391      -1.45953513       0.08254156       0.00000000
Si       0.30279852      -0.54066510       3.68820357       0.00000000
Si       0.06072912       0.95188986      -3.67049652       0.00000000
Si      -2.51517600       1.74360015       2.26115929       0.00000000
Si       0.73363644       3.16649907       1.99990326       0.00000000
Si      -0.84504375      -2.88960165      -2.40928886       0.00000000
