10
Lattice="16.28999089631971 0.0 0.0 0.0 16.28999089631971 0.0 0.0 0.0 34.24959146834617" Properties=species:S:1:pos:R:3:initial_magmoms:R:1 pbc="T T T"
Si       1.35804843       1.35663120      -1.35638733       0.00000000
Si      -1.35799956      -1.35718506      -1.35638733       0.00000000
Si       1.35746199      -1.35716877       1.35762031       0.00000000
Si      -1.35703845       1.35821133       1.35806556       0.00000000
Si      -2.71370223       0.00123804      -2.71414464       0.00000000
Si      -2.71389771      -0.00008145       2.71462414       0.00000000
Si      -2.71427238      -2.71516833       0.00058224       0.00000000
Si      -2.71464705       2.71523349       0.00017125       0.00000000
Si       0.00039096      -2.71433754       2.71554888       0.00000000
Si       2.71516833      -2.71516833       0.00003425       0.00000000
