10
Lattice="16.28999089631971 0.0 0.0 0.0 16.28999089631971 0.0 0.0 0.0 34.24959146834617" Properties=species:S:1:pos:R:3:initial_magmoms:R:1 pbc="T T T"
Si      -0.38154438      -2.04726204      -1.00844553       0.00000000
Si      -1.20099654       0.12810456       2.02685771       0.00000000
Si       2.13162795       0.66617955       0.89432583       0.00000000
Si      -1.41837030       0.51932520      -1.92164290       0.00000000
Si       1.44717102       2.91541871       0.58772332       0.00000000
Si       0.33029604       1.45829629      -3.18521379       0.00000000
Si       1.72366119      -2.66219325      -1.82327802       0.00000000
Si      -3.32838909       1.01178819       1.47413749       0.00000000
Si       2.28623634      -0.48350349       3.08143747       0.00000000
Si       1.25608932       3.31288820      -1.81303739       0.00000000
