10
Lattice="16.28999089631971 0.0 0.0 0.0 16.28999089631971 0.0 0.0 0.0 34.24959146834617" Properties=species:S:1:pos:R:3:initial_magmoms:R:1 pbc="T T T"
Si      -2.21538203      -0.30540492       0.62080844       0.00000000
Si       1.61318241      -0.66956787       1.58753795       0.00000000
Si       0.35262963      -1.68476067      -1.62007508       0.00000000
Si       0.37584288       2.31445062      -0.52717001       0.00000000
Si       3.43383426       0.51311871       0.52371080       0.00000000
Si       2.61692334       2.16228573      -1.05718273       0.00000000
Si      -3.22940195       1.40836824      -0.64961236       0.00000000
Si       0.46317357      -3.65559003      -0.41007059       0.00000000
Si       1.65599253      -3.05249350       1.51033933       0.00000000
Si       2.39904459      -1.18381059      -2.70219153       0.00000000
