10
Lattice="16.28999089631971 0.0 0.0 0.0 16.28999089631971 0.0 0.0 0.0 34.24959146834617" Properties=species:S:1:pos:R:3:initial_magmoms:R:1 pbc="T T T"
Si       1.74866634       0.93897109      -1.26357088       0.00000000
Si      -0.81443484      -1.88708247      -1.21853265       0.00000000
Si       1.41837030      -0.51932520       1.92164290       0.00000000
Si      -1.62987966       1.90611312       0.06860197       0.00000000
Si       1.03682592      -2.56658724       0.91319737       0.00000000
Si      -2.21377842      -0.50153652      -2.82138017       0.00000000
Si       0.48461121       2.23327659      -2.81747572       0.00000000
Si      -3.33945000       1.01211417      -1.45941016       0.00000000
Si       2.67445962       2.79356300       0.10860552       0.00000000
Si      -1.91001879       0.49246299       3.39578039       0.00000000
