10
Lattice="16.28999089631971 0.0 0.0 0.0 16.28999089631971 0.0 0.0 0.0 34.24959146834617" Properties=species:S:1:pos:R:3:initial_magmoms:R:1 pbc="T T T"
Si       1.30463352      -1.75179402      -0.76267033       0.00000000
Si       0.76737303       0.58368699       2.14111441       0.00000000
Si       0.50538096       1.92207339      -1.28155193       0.00000000
Si      -2.18090520      -0.86165955       0.30660251       0.00000000
Si      -3.13395165       0.89863785       1.59332614       0.00000000
Si       1.12050765      -3.38152707       0.95683137       0.00000000
Si       3.53072718      -0.96086565      -0.62735012       0.00000000
Si       0.60841521      -2.06654940      -3.03177553       0.00000000
Si      -1.62201159       2.80575702      -1.83427215       0.00000000
Si       2.93250951       1.68267555       1.86776826       0.00000000
