10
Lattice="16.28999089631971 0.0 0.0 0.0 16.28999089631971 0.0 0.0 0.0 34.24959146834617" Properties=species:S:1:pos:R:3:initial_magmoms:R:1 pbc="T T T"
Si      -1.35744570      -1.35679899       1.35631883       0.00000000
Si       1.35726651       1.35762489       1.35625033       0.00000000
Si      -1.35760860       1.35755973      -1.35762031       0.00000000
Si       1.35814617      -1.35825206      -1.35803131       0.00000000
Si       0.00107514       2.71306692       2.71397339       0.00000000
Si      -2.71264338      -0.00035838      -2.71517213       0.00000000
Si       0.00104256      -2.71331015      -2.71462414       0.00000000
Si      -2.71236645      -0.00524538       2.71609687       0.00000000
Si      -2.71433754       2.71422351      -0.00034250       0.00000000
Si       2.71210581       0.00558747       2.71695311       0.00000000
