10
Lattice="16.28999089631971 0.0 0.0 0.0 16.28999089631971 0.0 0.0 0.0 34.24959146834617" Properties=species:S:1:pos:R:3:initial_magmoms:R:1 pbc="T T T"
Si      -1.10501586      -1.90643892       0.79096051       0.00000000
Si      -1.54535085       1.81161416      -0.30995898       0.00000000
Si       1.57833810       0.22366496       1.87547443       0.00000000
Si       0.66538134      -0.64476472      -2.29835437       0.00000000
Si      -2.50377300      -2.30274204      -1.04779834       0.00000000
Si      -0.11487708       3.45555209      -1.36118227       0.00000000
Si       0.49984236      -3.59077605       1.25483723       0.00000000
Si       0.78706764      -3.00850629      -2.26907095       0.00000000
Si      -2.25839673      -1.71336984       2.84836887       0.00000000
Si       3.62672415      -0.97134175       1.48680985       0.00000000
