10
Lattice="16.28999089631971 0.0 0.0 0.0 16.28999089631971 0.0 0.0 0.0 34.24959146834617" Properties=species:S:1:pos:R:3:initial_magmoms:R:1 pbc="T T T"
Si       1.60331067       1.16675496       1.29710951       0.00000000
Si      -1.00186758      -1.63072511       1.45423303       0.00000000
Si       0.84264912      -0.96962967      -2.15371826       0.00000000
Si      -1.68626749       1.88561637       0.07980159       0.00000000
Si       2.42800821       2.30988942      -1.27124280       0.00000000
Si      -2.55911732       1.36546038      -2.24869243       0.00000000
Si      -2.37918361      -0.21791133       2.85341182       0.00000000
Si       0.34246467       2.51318862       2.84080454       0.00000000
Si      -1.94212149      -3.39156890       0.21817896       0.00000000
Si       2.40313338      -2.71229803      -1.78046601       0.00000000
