10
Lattice="16.28999089631971 0.0 0.0 0.0 16.28999089631971 0.0 0.0 0.0 34.24959146834617" Properties=species:S:1:pos:R:3:initial_magmoms:R:1 pbc="T T T"
Si       1.35672894      -1.35666378      -1.35727782       0.00000000
Si      -1.35767376       1.35785295      -1.35765456       0.00000000
Si      -1.35782037      -1.35772263       1.35765456       0.00000000
Si       1.35865116       1.35746199       1.35714082       0.00000000
Si       2.71433754      -2.71422351       0.00034250       0.00000000
Si       2.71448415       0.00312768      -2.71452139       0.00000000
Si      -2.71515204       0.00254124      -2.71404189       0.00000000
Si       0.00169416      -2.71458189      -2.71482963       0.00000000
Si       0.00146610       2.71503801      -2.71452139       0.00000000
Si       2.71541268      -0.00115659       2.71431589       0.00000000
