10
Lattice="16.28999089631971 0.0 0.0 0.0 16.28999089631971 0.0 0.0 0.0 34.24959146834617" Properties=species:S:1:pos:R:3:initial_magmoms:R:1 pbc="T T T"
Si       1.27899306       1.27338930      -1.69025253       0.00000000
Si      -1.31882211      -1.38391695      -1.63915211       0.00000000
Si      -1.10066643       1.76391378       1.45985540       0.00000000
Si       0.65560734      -1.30593672       2.24420574       0.00000000
Si      -2.55710646       2.54112597      -0.44065549       0.00000000
Si      -1.43462772      -1.48382352       3.32765792       0.00000000
Si       2.59745679      -2.92634375      -0.28036731       0.00000000
Si      -3.20623038      -2.25116397      -0.36722432       0.00000000
Si       1.17584478       2.65065993       2.66198249       0.00000000
Si       2.43134766       3.06110277      -0.60282740       0.00000000
