10
Lattice="16.28999089631971 0.0 0.0 0.0 16.28999089631971 0.0 0.0 0.0 34.24959146834617" Properties=species:S:1:pos:R:3:initial_magmoms:R:1 pbc="T T T"
Si       0.53357895       1.53888372      -1.70885007       0.00000000
Si       1.68901236       0.76551597       1.48167240       0.00000000
Si      -2.22599592       0.65091582       0.64378993       0.00000000
Si       0.43209225      -2.13786702      -1.14088878       0.00000000
Si      -0.43443801       0.50652126      -3.57699508       0.00000000
Si      -1.44573750      -3.44940098      -0.29338216       0.00000000
Si       3.74907834       0.30068082       0.45651306       0.00000000
Si      -3.40312761       1.23854499      -1.30874612       0.00000000
Si       2.81448846       1.38862476      -2.24708270       0.00000000
Si       1.57376061       3.17024577       1.64459780       0.00000000
