10
Lattice="16.28999089631971 0.0 0.0 0.0 16.28999089631971 0.0 0.0 0.0 34.24959146834617" Properties=species:S:1:pos:R:3:initial_magmoms:R:1 pbc="T T T"
Si      -2.04491628      -0.56299869       1.07406779       0.00000000
Si       1.43664768       1.67264091       0.90980666       0.00000000
Si      -0.74590281       0.90859104      -2.10573456       0.00000000
Si       1.31110065      -2.00417499       0.35760018       0.00000000
Si       1.70730603      -1.72481778       2.72935147       0.00000000
Si       2.56466502       0.46677366       2.59985369       0.00000000
Si      -3.27898152      -1.51537725      -0.72194754       0.00000000
Si       0.83662182       2.54635506      -2.67105863       0.00000000
Si      -0.86654655      -1.00800891      -3.60131231       0.00000000
Si       3.44605176      -1.67378121      -0.55295996       0.00000000
