10
Lattice="16.28999089631971 0.0 0.0 0.0 16.28999089631971 0.0 0.0 0.0 34.24959146834617" Properties=species:S:1:pos:R:3:initial_magmoms:R:1 pbc="T T T"
Si       1.35430173      -1.35721764      -1.35556534       0.00000000
Si       1.35550719       1.35747828       1.35696957       0.00000000
Si      -1.35913986      -1.35718506       1.35686682       0.00000000
Si      -1.35866745       1.35731538      -1.36029178       0.00000000
Si       2.68863192       0.00158013      -2.72016230       0.00000000
Si       2.71301805      -2.71191033       0.00000000       0.00000000
Si       2.71314837       0.00016290       2.71452139       0.00000000
Si      -2.71661814      -2.71249677       0.00047949       0.00000000
Si       2.71308321       2.71645524       0.00020550       0.00000000
Si      -0.00146610      -2.71503801       2.71452139       0.00000000
