10
Lattice="16.28999089631971 0.0 0.0 0.0 16.28999089631971 0.0 0.0 0.0 34.24959146834617" Properties=species:S:1:pos:R:3:initial_magmoms:R:1 pbc="T T T"
Si      -1.27234674       1.39466835       1.38916421       0.00000000
Si       1.34394129       1.36252818      -1.36844319       0.00000000
Si      -1.37358909      -1.35001746      -1.36378524       0.00000000
Si       1.41115383      -1.38492693       1.39782936       0.00000000
Si       2.69079849       2.70431919       0.00321946       0.00000000
Si       2.69825931       0.00713502      -2.72486477       0.00000000
Si      -0.01353699      -2.70904329      -2.72582376       0.00000000
Si       2.70580158      -2.72937321      -0.00109599       0.00000000
Si      -0.01470987       2.71966437      -2.72517302       0.00000000
Si      -2.74949136      -2.69801496       0.01592607       0.00000000
