10
Lattice="16.28999089631971 0.0 0.0 0.0 16.28999089631971 0.0 0.0 0.0 34.24959146834617" Properties=species:S:1:pos:R:3:initial_magmoms:R:1 pbc="T T T"
Si      -1.35821133      -1.35565380      -1.35775731       0.00000000
Si       1.35865116      -1.35713619       1.35672983       0.00000000
Si       1.35698958       1.35922131      -1.35792856       0.00000000
Si      -1.35943308       1.36159965       1.36193577       0.00000000
Si       2.71296918      -2.71252935       0.00030825       0.00000000
Si      -2.71528236      -2.71282257       0.00017125       0.00000000
Si      -0.00050499      -2.71365336      -2.71534338       0.00000000
Si       2.71495656       0.00197109      -2.71510363       0.00000000
Si      -2.71567332       0.00151497      -2.71537763       0.00000000
Si       2.71477737       2.71632492      -0.00020550       0.00000000
