10
Lattice="16.28999089631971 0.0 0.0 0.0 16.28999089631971 0.0 0.0 0.0 34.24959146834617" Properties=species:S:1:pos:R:3:initial_magmoms:R:1 pbc="T T T"
Si       1.36664955       1.75407462      -0.46514396       0.00000000
Si       0.38719701      -0.85256973       2.12505134       0.00000000
Si      -2.22602850       0.35479620      -0.62402791       0.00000000
Si       0.31807854      -1.55004237      -1.72878335       0.00000000
Si      -2.06247690      -1.74449610      -1.68456710       0.00000000
Si       0.54724626       1.35272160       3.09921301       0.00000000
Si       0.18419103       2.77545762      -2.20820939       0.00000000
Si       1.70279370       2.72600118       1.63987136       0.00000000
Si       3.44313585       0.78946227      -1.02642658       0.00000000
Si      -2.04190263       1.98452925      -2.34352961       0.00000000
