10
Lattice="16.28999089631971 0.0 0.0 0.0 16.28999089631971 0.0 0.0 0.0 34.24959146834617" Properties=species:S:1:pos:R:3:initial_magmoms:R:1 pbc="T T T"
Si       1.15554744       1.37327958      -1.45934166       0.00000000
Si      -1.94805594       1.18076436       0.53723939       0.00000000
Si       1.08266598       0.48216771       2.05025019       0.00000000
Si      -0.16004925      -2.20529133      -0.97416167       0.00000000
Si      -0.39454380      -0.94936491       3.22042239       0.00000000
Si      -0.54724626      -1.35272160      -3.09921301       0.00000000
Si      -2.52696996      -0.14315652       2.40124020       0.00000000
Si       0.81940329       0.40135302      -3.56435698       0.00000000
Si       0.45985041       3.59432334      -1.03057078       0.00000000
Si      -1.24849818       3.48400746       0.71160416       0.00000000
