10
Lattice="16.28999089631971 0.0 0.0 0.0 16.28999089631971 0.0 0.0 0.0 34.24959146834617" Properties=species:S:1:pos:R:3:initial_magmoms:R:1 pbc="T T T"
Si       1.35820481      -1.35477414       1.36005204       0.00000000
Si      -1.35794810       1.35917244       1.35809981       0.00000000
Si      -1.35505412      -1.36590021      -1.36663481       0.00000000
Si       1.36659416       1.36519974      -1.37924209       0.00000000
Si      -2.61825653       0.03158631      -2.77537267       0.00000000
Si      -2.71459559      -2.71145095       0.00304822       0.00000000
Si       2.71703516       2.71130760       0.00171248       0.00000000
Si       2.71508036      -2.71352141      -0.00154123       0.00000000
Si      -0.00038444      -2.71276230       2.71643937       0.00000000
Si       2.71534100       0.00184077       2.71575437       0.00000000
