10
Lattice="16.28999089631971 0.0 0.0 0.0 16.28999089631971 0.0 0.0 0.0 34.24959146834617" Properties=species:S:1:pos:R:3:initial_magmoms:R:1 pbc="T T T"
Si      -1.35518139       1.35692442      -1.36275776       0.00000000
Si      -1.34975682      -1.35606105       1.37662885       0.00000000
Si       1.35943308      -1.36159965      -1.36193577       0.00000000
Si       1.35024552       1.36635633       1.38604749       0.00000000
Si      -2.71046052       2.70979993      -0.00575393       0.00000000
Si       2.71235016       2.71411765       0.00123299       0.00000000
Si       0.00135207       2.71245530      -2.71948758       0.00000000
Si      -2.71327869      -0.00187335      -2.71924783       0.00000000
Si      -2.71656927      -2.71837746      -0.00260297       0.00000000
Si       2.71642266      -0.00237834      -2.71986433       0.00000000
