10
Lattice="16.28999089631971 0.0 0.0 0.0 16.28999089631971 0.0 0.0 0.0 34.24959146834617" Properties=species:S:1:pos:R:3:initial_magmoms:R:1 pbc="T T T"
Si       1.36210464       1.34776132      -1.38481451       0.00000000
Si      -1.35024552      -1.36635633      -1.38604749       0.00000000
Si       1.37036367      -1.37738466       1.38758872       0.00000000
Si      -1.43997084       1.41180463       1.53424556       0.00000000
Si      -2.70402597       2.70611013      -0.01965928       0.00000000
Si      -2.70000234      -2.72241738      -0.00941864       0.00000000
Si       2.71344159       2.71538892      -0.00260297       0.00000000
Si       0.00860112       2.70484277      -2.74911349       0.00000000
Si      -2.70542691      -0.00943191      -2.74880525       0.00000000
Si       2.71469592      -2.74330116      -0.01959078       0.00000000
