10
Lattice="16.28999089631971 0.0 0.0 0.0 16.28999089631971 0.0 0.0 0.0 34.24959146834617" Properties=species:S:1:pos:R:3:initial_magmoms:R:1 pbc="T T T"
Si      -2.10520557       0.61493121       0.81483249       0.00000000
Si      -1.20184362      -1.34426709      -1.52982736       0.00000000
Si       1.41696936       1.33130025      -1.50859260       0.00000000
Si       1.20254409      -0.37859589       2.21560731       0.00000000
Si      -2.44853361      -2.65272876      -0.00232897       0.00000000
Si      -1.72366119       2.66219325       1.82327802       0.00000000
Si      -2.82162348      -1.19832498       2.09991213       0.00000000
Si       2.31523254      -2.44434708       1.96233144       0.00000000
Si      -2.65339665      -0.01373247      -2.90559997       0.00000000
Si       0.04660569       2.70868491      -2.89618132       0.00000000
