10
Lattice="16.28999089631971 0.0 0.0 0.0 16.28999089631971 0.0 0.0 0.0 34.24959146834617" Properties=species:S:1:pos:R:3:initial_magmoms:R:1 pbc="T T T"
Si      -2.01262950       1.22134275       0.04630547       0.00000000
Si       0.31361508      -0.30613797       2.33270673       0.00000000
Si       1.65397257       1.38223908      -1.02591284       0.00000000
Si      -0.22263543      -2.22045732      -0.88590043       0.00000000
Si      -2.55379959       0.78138243      -2.22454646       0.00000000
Si      -1.72286298      -1.22986242       2.94395953       0.00000000
Si      -3.23314146       0.12935889       1.82190804       0.00000000
Si       3.54711492       1.20102912       0.48881044       0.00000000
Si       1.92020004      -3.17281959      -1.03851669       0.00000000
Si       2.01352545      -1.90575081       2.75760740       0.00000000
