10
Lattice="16.28999089631971 0.0 0.0 0.0 16.28999089631971 0.0 0.0 0.0 34.24959146834617" Properties=species:S:1:pos:R:3:initial_magmoms:R:1 pbc="T T T"
Si       2.21538203       0.30540492      -0.62080844       0.00000000
Si      -1.10560230      -1.86109992      -0.88703067       0.00000000
Si      -1.01401992       1.71377316      -1.27042081       0.00000000
Si      -0.52934355       0.07631865       2.30510154       0.00000000
Si      -2.95616259      -1.49426541       0.49250940       0.00000000
Si      -1.05547797       2.30246118       2.45727256       0.00000000
Si       2.56801166      -1.37935575      -2.24088352       0.00000000
Si       0.39910893      -3.65222519      -0.62841186       0.00000000
Si      -1.64784753      -1.29971394      -3.10548069       0.00000000
Si       2.59122491       2.61985554      -1.14797845       0.00000000
