10
Lattice="16.28999089631971 0.0 0.0 0.0 16.28999089631971 0.0 0.0 0.0 34.24959146834617" Properties=species:S:1:pos:R:3:initial_magmoms:R:1 pbc="T T T"
Si      -1.53057582      -1.60673646      -0.62097969       0.00000000
Si       1.85056029      -0.36683451      -1.37954007       0.00000000
Si       0.61872678       0.12570993       2.26992719       0.00000000
Si      -0.95957874       2.15438508      -0.42061947       0.00000000
Si       2.95616259       1.49426541      -0.49250940       0.00000000
Si       2.42681904       1.57058406       1.81259214       0.00000000
Si      -3.57896187      -0.41172975      -0.23231511       0.00000000
Si      -3.09452985       1.82399130       0.48994068       0.00000000
Si      -0.44968545      -3.62531411       0.34568132       0.00000000
Si       1.30831506       0.19455147      -3.59799009       0.00000000
