10
Lattice="16.28999089631971 0.0 0.0 0.0 16.28999089631971 0.0 0.0 0.0 34.24959146834617" Properties=species:S:1:pos:R:3:initial_magmoms:R:1 pbc="T T T"
Si      -1.35690813      -1.35736425       1.35854505       0.00000000
Si       1.35827553       1.35773892       1.35844231       0.00000000
Si       1.35794810      -1.35917244      -1.35809981       0.00000000
Si      -1.35816246       1.35886293      -1.35916155       0.00000000
Si      -2.71295289      -2.71410948       0.00191798       0.00000000
Si      -2.71433754       2.71467963       0.00037675       0.00000000
Si       2.71615292      -2.71394658       0.00195223       0.00000000
Si       0.00056383      -2.71446786       2.71568587       0.00000000
Si       2.71454021       0.00104256       2.71572012       0.00000000
Si      -2.71507059       0.00058644       2.71592562       0.00000000
