10
Lattice="16.28999089631971 0.0 0.0 0.0 16.28999089631971 0.0 0.0 0.0 34.24959146834617" Properties=species:S:1:pos:R:3:initial_magmoms:R:1 pbc="T T T"
Si       0.52613442      -2.22614253      -0.15217102       0.00000000
Si      -2.13035733       0.09306477      -0.93785709       0.00000000
Si      -0.29335032       1.31030244       1.92291014       0.00000000
Si       1.10705685       1.74128697      -1.12211999       0.00000000
Si       0.65410866       3.12878772       0.73732562       0.00000000
Si      -0.33052410       1.54261413      -2.91971081       0.00000000
Si       1.05547797      -2.30246118      -2.45727256       0.00000000
Si       1.46754071       0.57765969       3.28131819       0.00000000
Si       2.14122343      -2.57924457       1.46375986       0.00000000
Si       0.04145805      -0.58868802      -3.72769337       0.00000000
