10
Lattice="16.28999089631971 0.0 0.0 0.0 16.28999089631971 0.0 0.0 0.0 34.24959146834617" Properties=species:S:1:pos:R:3:initial_magmoms:R:1 pbc="T T T"
Si       1.25533998      -1.28718693       1.53600599       0.00000000
Si      -0.75051288      -1.94507487      -1.26556905       0.00000000
Si       1.12453128       1.71800856      -1.35742650       0.00000000
Si      -1.47598803       1.40225949       1.50757196       0.00000000
Si       2.68680744      -2.52530838       0.08665151       0.00000000
Si       2.61210150       2.74602159       0.17707049       0.00000000
Si      -0.72444888       3.39198525      -1.54590211       0.00000000
Si      -2.67902082       2.78752851      -0.08538085       0.00000000
Si      -2.78501985      -2.69557146      -0.03475993       0.00000000
Si       2.59621875       0.06504597       2.90892560       0.00000000
