10
Lattice="16.28999089631971 0.0 0.0 0.0 16.28999089631971 0.0 0.0 0.0 34.24959146834617" Properties=species:S:1:pos:R:3:initial_magmoms:R:1 pbc="T T T"
Si      -1.37883840       1.39243662       1.27792147       0.00000000
Si      -1.35863862      -1.33312473      -1.36707321       0.00000000
Si       1.35671591       1.37955123      -1.36755270       0.00000000
Si       1.32791519      -1.34001540       1.54527393       0.00000000
Si       0.33885155       2.21791608       2.65362558       0.00000000
Si       2.18576288       0.65660103       2.82631212       0.00000000
Si       2.70762932      -2.68436394       0.02257049       0.00000000
Si      -2.74104078      -2.67607233       0.00876790       0.00000000
Si      -0.00127714      -2.69185734      -2.72691975       0.00000000
Si       2.71284212       0.02230101      -2.72592651       0.00000000
