10
Lattice="16.28999089631971 0.0 0.0 0.0 16.28999089631971 0.0 0.0 0.0 34.24959146834617" Properties=species:S:1:pos:R:3:initial_magmoms:R:1 pbc="T T T"
Si      -1.35431802       1.35539316       1.35642158       0.00000000
Si      -1.35583299      -1.35843939      -1.35809981       0.00000000
Si       1.35935163       1.35645201      -1.35816831       0.00000000
Si       1.36024758      -1.36089918       1.36053153       0.00000000
Si      -2.69825931      -0.00713502       2.72486477       0.00000000
Si      -0.00746082       2.69718417       2.72808423       0.00000000
Si      -2.71296918       2.71252935      -0.00030825       0.00000000
Si      -2.71179630      -2.71617831      -0.00095899       0.00000000
Si      -2.71347417      -0.00112401      -2.71565163       0.00000000
Si       0.00198738       2.71450044      -2.71541188       0.00000000
