10
Lattice="16.28999089631971 0.0 0.0 0.0 16.28999089631971 0.0 0.0 0.0 34.24959146834617" Properties=species:S:1:pos:R:3:initial_magmoms:R:1 pbc="T T T"
Si       1.34337114      -1.37608146       1.28483989       0.00000000
Si       1.36107837       1.32745581      -1.36241526       0.00000000
Si      -1.35114147      -1.39113342      -1.35789431       0.00000000
Si      -1.37091753       1.32957351       1.47639796       0.00000000
Si      -0.31014531      -2.30107653       2.70006805       0.00000000
Si      -2.22122295      -0.44199657       2.81024905       0.00000000
Si       2.70921338       2.67315642       0.01818654       0.00000000
Si      -2.71884987       2.66694993       0.00965839       0.00000000
Si       0.00619020       2.68377750      -2.71907659       0.00000000
Si      -2.71138905      -0.03023424      -2.71842584       0.00000000
