10
Lattice="16.28999089631971 0.0 0.0 0.0 16.28999089631971 0.0 0.0 0.0 34.24959146834617" Properties=species:S:1:pos:R:3:initial_magmoms:R:1 pbc="T T T"
Si       1.45356877       0.58727079       1.73744850       0.00000000
Si      -0.30626829       2.29392522      -0.55693292       0.00000000
Si      -1.77784173      -1.30776120       0.91230688       0.00000000
Si       1.40252080      -1.66949694      -1.00197236       0.00000000
Si       1.01981916      -1.46430810       2.87994701       0.00000000
Si       1.95035350      -2.64986172       1.08519891       0.00000000
Si      -3.38377509      -0.74728746      -0.65300308       0.00000000
Si      -2.63234997       2.73471633       0.13473797       0.00000000
Si      -0.73190970       2.37721599      -2.87374783       0.00000000
Si      -2.33937432      -0.38157696       3.07078584       0.00000000
