10
Lattice="16.28999089631971 0.0 0.0 0.0 16.28999089631971 0.0 0.0 0.0 34.24959146834617" Properties=species:S:1:pos:R:3:initial_magmoms:R:1 pbc="T T T"
Si       1.69442064       0.59249988       1.46002665       0.00000000
Si       1.37466423      -1.41799563      -1.25076153       0.00000000
Si      -1.44234918      -1.06813530       1.53732802       0.00000000
Si      -0.48299850       1.60893072      -1.68470410       0.00000000
Si       2.87619498       0.52619958      -1.87554293       0.00000000
Si       1.60023186      -1.06828191       3.05054432       0.00000000
Si      -0.20162133      -2.84975631      -2.35435248       0.00000000
Si       3.67030220       0.69467076       0.33252947       0.00000000
Si      -2.55948480       2.57354307      -1.12342148       0.00000000
Si      -3.53893734      -0.03310128       1.46677382       0.00000000
