10
Lattice="16.28999089631971 0.0 0.0 0.0 16.28999089631971 0.0 0.0 0.0 34.24959146834617" Properties=species:S:1:pos:R:3:initial_magmoms:R:1 pbc="T T T"
Si      -2.14283547       0.95236227       0.15261626       0.00000000
Si       1.30719105       0.58785723       1.88725629       0.00000000
Si       1.49553603       0.79625520      -1.66062662       0.00000000
Si      -0.64277082      -2.26748655      -0.56145387       0.00000000
Si       1.75361850      -2.77027740      -1.28802511       0.00000000
Si       1.84780728      -1.10949561      -2.87854277       0.00000000
Si      -3.22550145       0.47019456      -1.89763393       0.00000000
Si       0.21963807       2.06469234      -3.15815659       0.00000000
Si       2.73825126      -1.18410381       2.36901132       0.00000000
Si      -1.92020004       3.17281959       1.03851669       0.00000000
