10
Lattice="16.28999089631971 0.0 0.0 0.0 16.28999089631971 0.0 0.0 0.0 34.24959146834617" Properties=species:S:1:pos:R:3:initial_magmoms:R:1 pbc="T T T"
Si       1.35847197       1.35658233      -1.35594208       0.00000000
Si      -1.35788553      -1.35664749      -1.35700382       0.00000000
Si      -1.35796698       1.35725022       1.35717507       0.00000000
Si       1.35736425      -1.35804843       1.35724357       0.00000000
Si       2.71332756       0.00050499      -2.71219241       0.00000000
Si       2.71427238      -2.71472850       0.00020550       0.00000000
Si       2.71441899       2.71469592       0.00020550       0.00000000
Si      -0.00017919       2.71435383       2.71489813       0.00000000
Si      -0.00198738      -2.71450044       2.71541188       0.00000000
Si      -2.71495656      -0.00197109       2.71510363       0.00000000
