10
Lattice="16.28999089631971 0.0 0.0 0.0 16.28999089631971 0.0 0.0 0.0 34.24959146834617" Properties=species:S:1:pos:R:3:initial_magmoms:R:1 pbc="T T T"
Si       1.00564686       1.73499905      -1.15243090       0.00000000
Si      -0.63926847       0.66790629       2.13868268       0.00000000
Si      -1.81423359      -1.05466347      -1.05060681       0.00000000
Si       1.73589498      -1.70580735       0.19957248       0.00000000
Si       2.27647863       0.30819051      -2.48515175       0.00000000
Si      -0.46990134      -2.42057997      -2.45778631       0.00000000
Si      -0.16454529      -1.34830701       3.20805828       0.00000000
Si       2.10491235       2.91393795       0.55508344       0.00000000
Si       2.16153639      -1.78909812       2.51638739       0.00000000
Si       0.83701278       2.28639991       2.95207669       0.00000000
