10
Lattice="16.28999089631971 0.0 0.0 0.0 16.28999089631971 0.0 0.0 0.0 34.24959146834617" Properties=species:S:1:pos:R:3:initial_magmoms:R:1 pbc="T T T"
Si       2.21141637      -0.81951732       0.01452183       0.00000000
Si      -1.21696074      -2.02652487       0.11816116       0.00000000
Si      -0.75434103       1.39491989       1.80005678       0.00000000
Si      -0.06089202       0.86276794      -2.44007926       0.00000000
Si      -1.53717327      -0.75572568      -3.25347326       0.00000000
Si       0.17016534       3.67366283      -0.02849568       0.00000000
Si      -1.06245009      -2.77193898      -2.18409767       0.00000000
Si       2.85246633      -1.33190298      -2.15899270       0.00000000
Si       2.24657019      -3.10028022       0.71581686       0.00000000
Si      -1.38508983      -0.12432528       3.65419370       0.00000000
