10
Lattice="16.28999089631971 0.0 0.0 0.0 16.28999089631971 0.0 0.0 0.0 34.24959146834617" Properties=species:S:1:pos:R:3:initial_magmoms:R:1 pbc="T T T"
Si       0.64104996      -0.51238566      -2.17351454       0.00000000
Si      -2.21141637       0.81951732      -0.01452183       0.00000000
Si       1.62702632       1.69647222       0.38143791       0.00000000
Si       0.03515382      -2.28076290       0.70129503       0.00000000
Si       1.37693247      -2.11672260       2.56800155       0.00000000
Si      -3.42837711      -1.20700755       0.10363932       0.00000000
Si       2.91166550      -1.11400794      -1.98921738       0.00000000
Si      -2.27230839       1.68228526      -2.45460109       0.00000000
Si      -2.14394319      -2.89232208       1.25473448       0.00000000
Si      -0.94778478      -2.39321277      -2.89029039       0.00000000
