10
Lattice="16.28999089631971 0.0 0.0 0.0 16.28999089631971 0.0 0.0 0.0 34.24959146834617" Properties=species:S:1:pos:R:3:initial_magmoms:R:1 pbc="T T T"
Si      -1.65397257      -1.38223908       1.02591284       0.00000000
Si       1.89314235      -0.18120996       1.51472328       0.00000000
Si       0.88521489      -0.43153839      -2.22975240       0.00000000
Si      -1.08089037       2.01857765      -0.96666101       0.00000000
Si      -0.67899978       1.11578355      -3.13363387       0.00000000
Si       0.44968545       3.62531411      -0.34568132       0.00000000
Si      -3.66660207      -0.16089633       1.07221831       0.00000000
Si      -2.49942357      -0.49054077      -2.94080857       0.00000000
Si      -1.34035749      -1.68837705       3.35861957       0.00000000
Si       1.20249522       0.38307564       3.82146880       0.00000000
