10
Lattice="16.28999089631971 0.0 0.0 0.0 16.28999089631971 0.0 0.0 0.0 34.24959146834617" Properties=species:S:1:pos:R:3:initial_magmoms:R:1 pbc="T T T"
Si       1.27624005      -1.83471012       0.74307955       0.00000000
Si      -1.62579087      -0.52733988       1.69706821       0.00000000
Si      -0.43587153      -0.59810364      -2.32030837       0.00000000
Si       0.28531935       2.38741353       0.65303733       0.00000000
Si      -2.64931438       0.08716779      -2.34678332       0.00000000
Si      -2.78574150       1.44119259       1.65603717       0.00000000
Si      -0.00438201      -3.63868101      -0.05897783       0.00000000
Si       2.26826847       2.14234677       1.89729143       0.00000000
Si       1.36249560      -1.69914474       3.15849909       0.00000000
Si      -3.57984872       1.27272141      -0.55203522       0.00000000
