10
Lattice="16.28999089631971 0.0 0.0 0.0 16.28999089631971 0.0 0.0 0.0 34.24959146834617" Properties=species:S:1:pos:R:3:initial_magmoms:R:1 pbc="T T T"
Si      -0.11341098      -2.30013171       0.43945675       0.00000000
Si      -0.87474042       0.86104053       2.00469821       0.00000000
Si      -0.98826543       1.07650836      -1.84201256       0.00000000
Si       2.24824806       0.80366715      -0.26492074       0.00000000
Si       0.52486380      -3.18541176      -1.68912230       0.00000000
Si       0.07411950       3.23832168      -1.80474898       0.00000000
Si      -3.25212175       1.22249934      -1.32069923       0.00000000
Si       1.53720585      -2.66921424       2.08641778       0.00000000
Si      -1.61386659       2.99330379       1.53280707       0.00000000
Si       2.67644700       1.99537839       1.76364945       0.00000000
