10
Lattice="16.28999089631971 0.0 0.0 0.0 16.28999089631971 0.0 0.0 0.0 34.24959146834617" Properties=species:S:1:pos:R:3:initial_magmoms:R:1 pbc="T T T"
Si      -0.57527225      -2.22659865       0.08264431       0.00000000
Si      -1.76089103       0.73264275      -1.35840806       0.00000000
Si       2.01689748       0.80216847      -1.07804074       0.00000000
Si       0.29757758      -1.70644266       2.41113834       0.00000000
Si       1.27777131       2.93443173      -1.54993188       0.00000000
Si      -1.46754071      -0.57765969      -3.28131819       0.00000000
Si      -0.81343205       2.55112803      -2.54399258       0.00000000
Si       0.67368272      -3.15690426      -1.81755834       0.00000000
Si       2.34675369       1.83519882       2.29013446       0.00000000
Si       1.00551002       0.27588744       3.72484179       0.00000000
