10
Lattice="16.28999089631971 0.0 0.0 0.0 16.28999089631971 0.0 0.0 0.0 34.24959146834617" Properties=species:S:1:pos:R:3:initial_magmoms:R:1 pbc="T T T"
Si      -0.90181440       1.70271225      -1.36419624       0.00000000
Si      -0.21564702       1.04132196       2.14135415       0.00000000
Si       2.29952898      -0.70227819      -0.11980514       0.00000000
Si      -1.06238493      -2.16181332      -0.03726358       0.00000000
Si       2.17412856      -2.43465453       1.53982824       0.00000000
Si       0.91134405       3.25710405      -1.40786449       0.00000000
Si      -0.07411950      -3.23832168       1.80474898       0.00000000
Si      -1.68798609      -0.24501789       3.33755605       0.00000000
Si       2.70554094      -1.61885133      -2.26516650       0.00000000
Si      -3.32624125      -2.01582234       0.48404975       0.00000000
