10
Lattice="16.28999089631971 0.0 0.0 0.0 16.28999089631971 0.0 0.0 0.0 34.24959146834617" Properties=species:S:1:pos:R:3:initial_magmoms:R:1 pbc="T T T"
Si       0.94025391       1.76084379       1.23605406       0.00000000
Si      -1.78269193      -0.92137869       1.27436225       0.00000000
Si       1.78827873      -1.78258212      -0.24105770       0.00000000
Si      -0.44070727      -2.26051443       2.64514469       0.00000000
Si       2.29095555       0.46664334       2.64315479       0.00000000
Si      -3.27026215      -1.94939172      -0.26013474       0.00000000
Si       0.61762395      -2.95534809      -2.33822986       0.00000000
Si       0.86952599      -3.58034652       1.17870651       0.00000000
Si       3.56354664      -0.92870919       1.21912448       0.00000000
Si       1.94212149       3.39156890      -0.21817896       0.00000000
