10
Lattice="16.28999089631971 0.0 0.0 0.0 16.28999089631971 0.0 0.0 0.0 34.24959146834617" Properties=species:S:1:pos:R:3:initial_magmoms:R:1 pbc="T T T"
Si      -1.27259109       1.39535253       1.42403031       0.00000000
Si       1.74231324       1.14254802      -1.13964072       0.00000000
Si       1.41560100      -1.33035543       1.40085017       0.00000000
Si      -1.77526791      -0.85387293      -1.46018218       0.00000000
Si       0.78170823       1.60798005      -3.21776945       0.00000000
Si      -2.62329273       2.68955298       0.01692958       0.00000000
Si      -2.69402065      -2.65163733      -0.04041797       0.00000000
Si       2.74577724      -2.62640412      -0.14628351       0.00000000
Si      -2.64598633       0.04114854       2.78031147       0.00000000
Si       0.07020990      -2.67336819       2.78486666       0.00000000
