10
Lattice="16.28999089631971 0.0 0.0 0.0 16.28999089631971 0.0 0.0 0.0 34.24959146834617" Properties=species:S:1:pos:R:3:initial_magmoms:R:1 pbc="T T T"
Si       1.34828583       1.35011031      -1.37834133       0.00000000
Si      -1.36060174      -1.37081362      -1.38183479       0.00000000
Si       1.60218177      -1.22710501       1.34779068       0.00000000
Si      -1.51123537       1.31182881       1.38659549       0.00000000
Si       0.11808621      -2.58026662       2.53899213       0.00000000
Si       2.70366270       2.71480506       0.00962414       0.00000000
Si      -2.69864605      -2.72658340      -0.03757182       0.00000000
Si      -0.00524375       2.70731166      -2.73986610       0.00000000
Si       2.70898953      -0.00925435      -2.73873586       0.00000000
Si      -2.71959499      -0.00803423      -2.73839337       0.00000000
