10
Lattice="16.28999089631971 0.0 0.0 0.0 16.28999089631971 0.0 0.0 0.0 34.24959146834617" Properties=species:S:1:pos:R:3:initial_magmoms:R:1 pbc="T T T"
Si       1.35814617      -1.35495333      -1.35659283       0.00000000
Si      -1.35803051      -1.35602847       1.35799706       0.00000000
Si       1.35720135       1.35904212       1.35772306       0.00000000
Si      -1.35805006       1.35956340      -1.36114802       0.00000000
Si      -0.00943191      -2.69579952      -2.72748829       0.00000000
Si       2.71384884      -2.71337643       0.00116449       0.00000000
Si      -2.71582805      -2.71220355       0.00099324       0.00000000
Si      -0.00037467      -2.71360449       2.71530913       0.00000000
Si      -2.71502718       0.00149868       2.71496663       0.00000000
Si       2.71353933       2.71682481       0.00123299       0.00000000
