10
Lattice="16.28999089631971 0.0 0.0 0.0 16.28999089631971 0.0 0.0 0.0 34.24959146834617" Properties=species:S:1:pos:R:3:initial_magmoms:R:1 pbc="T T T"
Si      -0.74814594       1.78662204      -1.18777650       0.00000000
Si       0.17962983       0.82222146       2.13827169       0.00000000
Si       1.76344137      -1.25885862      -0.85966523       0.00000000
Si       0.28248489      -1.53621216       2.62016371       0.00000000
Si      -2.09098570       1.42384374       1.95397453       0.00000000
Si      -2.23123220       0.30327093      -2.35150977       0.00000000
Si       2.07330975      -2.45658087       1.22589631       0.00000000
Si       0.39701988      -2.52043767      -2.31873289       0.00000000
Si      -1.94669410       3.15437949       0.24800143       0.00000000
Si       3.26096478       0.24058701      -2.13810044       0.00000000
