10
Lattice="16.28999089631971 0.0 0.0 0.0 16.28999089631971 0.0 0.0 0.0 34.24959146834617" Properties=species:S:1:pos:R:3:initial_magmoms:R:1 pbc="T T T"
Si      -0.64104996       0.51238566       2.17351454       0.00000000
Si       2.27061553      -0.60162228       0.18429715       0.00000000
Si       0.14429161       1.73053575      -1.70597310       0.00000000
Si      -1.58883474      -1.88082711      -0.71677585       0.00000000
Si       2.09098570      -1.42384374      -1.95397453       0.00000000
Si      -0.60589614      -1.76837724       2.87480957       0.00000000
Si       1.34283976       0.36277830      -3.14175103       0.00000000
Si       0.98597636       2.20885788       2.55495245       0.00000000
Si      -2.91335835       2.19467092      -0.28108655       0.00000000
Si      -2.85246633       1.33190298       2.15899270       0.00000000
