10
Lattice="10.86 0.0 0.0 0.0 10.86 0.0 0.0 0.0 10.86" Properties=species:S:1:pos:R:3:initial_magmoms:R:1 pbc="T T T"
Si      -1.10879514       1.34443542      -1.39704126       0.00000000
Si      -2.26500504      -0.19191792      -2.71542354       0.00000000
Si      -2.29855158      -0.00347520       2.72357940       0.00000000
Si      -2.47592796       2.60923446      -0.10669950       0.00000000
Si      -2.39296842      -2.80744032       0.08166720       0.00000000
Si       0.27255342       2.57814228       2.64880830       0.00000000
Si       0.27625668       2.73208278      -2.63967504       0.00000000
Si       0.41465652      -2.79849168       2.65475958       0.00000000
Si       0.37308444      -2.78762082      -2.82686886       0.00000000
Si       2.97827898      -0.11124984       2.75217378       0.00000000
