10
Lattice="10.86 0.0 0.0 0.0 10.86 0.0 0.0 0.0 10.86" Properties=species:S:1:pos:R:3:initial_magmoms:R:1 pbc="T T T"
Si       1.31518944      -1.36645950      -1.23844182       0.00000000
Si      -1.39981056       1.34854050      -1.23844182       0.00000000
Si      -1.39981056      -1.36645950       1.47655818       0.00000000
Si      -2.63808948       2.59570290       0.11144532       0.00000000
Si       2.67268944      -0.00895950      -2.59594182       0.00000000
Si      -0.04231056       2.70604050      -2.59594182       0.00000000
Si      -0.04231056      -2.72395950      -2.59594182       0.00000000
Si      -2.75731056      -0.00895950      -2.59594182       0.00000000
Si       2.67268944      -2.72395950       0.11905818       0.00000000
Si       2.63707950       2.76933258       0.06949314       0.00000000
