10
Lattice="16.28999089631971 0.0 0.0 0.0 16.28999089631971 0.0 0.0 0.0 34.376317263855086" Properties=species:S:1:pos:R:3:initial_magmoms:R:1 pbc="T T T"
Si      -2.07700825       0.90249858       0.68477662       0.00000000
Si       1.63068439       0.74927484      -1.62074114       0.00000000
Si      -1.09778377      -1.91518272      -1.03476210       0.00000000
Si       1.63309531       0.66481119       1.86536315       0.00000000
Si      -0.26721464       2.11037506      -2.26914759       0.00000000
Si       2.10361567      -1.60725285      -2.10060042       0.00000000
Si      -1.14562750       3.01674577       1.39980442       0.00000000
Si      -0.28745171       1.50226398       3.21459998       0.00000000
Si      -2.51071321       1.22427495      -2.67502900       0.00000000
Si      -2.25807160      -1.11340521      -2.98692550       0.00000000
