10
Lattice="16.28999089631971 0.0 0.0 0.0 16.28999089631971 0.0 0.0 0.0 34.376317263855086" Properties=species:S:1:pos:R:3:initial_magmoms:R:1 pbc="T T T"
Si      -0.98982927       1.46966751       1.49983956       0.00000000
Si       1.34633592      -1.29313278       1.52524367       0.00000000
Si       0.67192992       0.56506752      -2.27145081       0.00000000
Si       1.94502600      -1.41623631      -2.06536467       0.00000000
Si       1.65094263      -2.84175792      -0.16125939       0.00000000
Si      -1.51079976       3.19179744       0.06393999       0.00000000
Si      -2.33638999       0.00726534       2.79157651       0.00000000
Si      -0.50955120      -3.74197590      -0.73682240       0.00000000
Si       0.46908684       2.69206911       2.89861754       0.00000000
Si       2.26171989       2.30648481      -2.34374424       0.00000000
