10
Lattice="16.28999089631971 0.0 0.0 0.0 16.28999089631971 0.0 0.0 0.0 34.376317263855086" Properties=species:S:1:pos:R:3:initial_magmoms:R:1 pbc="T T T"
Si       1.68593355       0.94007798      -1.35387561       0.00000000
Si      -1.03602771      -1.63938555      -1.35050673       0.00000000
Si       1.31693247      -1.22579874       1.54446692       0.00000000
Si      -1.38407985       1.46898170       1.50443568       0.00000000
Si       2.56306860      -2.57720085       0.12282321       0.00000000
Si      -2.65937508      -2.53527039       0.12114909       0.00000000
Si       0.70112160      -3.42641484      -1.26473777       0.00000000
Si       3.43207494      -0.91416548      -1.48832146       0.00000000
Si       2.71555929       2.77560260       0.05461025       0.00000000
Si      -0.02927313      -2.58891336       2.90155187       0.00000000
