10
Lattice="16.28999089631971 0.0 0.0 0.0 16.28999089631971 0.0 0.0 0.0 34.376317263855086" Properties=species:S:1:pos:R:3:initial_magmoms:R:1 pbc="T T T"
Si       0.86296275       1.84727948       1.21011580       0.00000000
Si      -1.38419388       1.28709408      -1.59750273       0.00000000
Si       1.47080781      -1.67400668      -1.26999937       0.00000000
Si      -1.24545195      -0.84033335       2.15508691       0.00000000
Si      -0.90751590       1.39736597       2.73412192       0.00000000
Si       0.87114033      -1.88382188       2.66127846       0.00000000
Si       1.76191011      -3.14018813       0.69247692       0.00000000
Si       0.33682833       2.31346670      -2.89936897       0.00000000
Si      -2.40357321      -0.49340522      -2.82979127       0.00000000
Si       1.92899664       3.31983032      -1.44648749       0.00000000
