10
Lattice="16.28999089631971 0.0 0.0 0.0 16.28999089631971 0.0 0.0 0.0 34.376317263855086" Properties=species:S:1:pos:R:3:initial_magmoms:R:1 pbc="T T T"
Si      -1.35832536      -1.35604476      -1.35800280       0.00000000
Si       1.35822762       1.35653346      -1.35762466       0.00000000
Si       1.35728280      -1.35769005       1.35789967       0.00000000
Si      -1.35777150       1.35765747       1.35834656       0.00000000
Si       2.71430496      -0.00053757       2.71359925       0.00000000
Si      -0.00120546       2.71362078       2.71476804       0.00000000
Si      -2.71467963      -0.00195480       2.71414927       0.00000000
Si       2.71508688       2.71480995      -0.00020626       0.00000000
Si      -2.71524978      -2.71497285       0.00044689       0.00000000
Si       2.71500543      -2.71526607       0.00024063       0.00000000
