10
Lattice="16.28999089631971 0.0 0.0 0.0 16.28999089631971 0.0 0.0 0.0 34.376317263855086" Properties=species:S:1:pos:R:3:initial_magmoms:R:1 pbc="T T T"
Si       1.33385778       1.35917244       1.37034390       0.00000000
Si      -1.35749457       1.35260757      -1.35972161       0.00000000
Si       1.35527913      -1.36089918      -1.35899971       0.00000000
Si      -1.36143675      -1.34806266       1.38436945       0.00000000
Si       2.56352472      -0.15154587       2.68871078       0.00000000
Si      -0.00058644       2.71221984      -2.71552432       0.00000000
Si      -2.71422351       2.71459818       0.00426267       0.00000000
Si       2.71446786      -0.00312768      -2.71597122       0.00000000
Si      -2.71461447      -2.71678104       0.00268135       0.00000000
Si       2.71630863       2.71534752      -0.00175319       0.00000000
