10
Lattice="16.28999089631971 0.0 0.0 0.0 16.28999089631971 0.0 0.0 0.0 34.376317263855086" Properties=species:S:1:pos:R:3:initial_magmoms:R:1 pbc="T T T"
Si      -1.33385778      -1.35917244      -1.37034390       0.00000000
Si       1.22966694      -1.51071831       1.31836688       0.00000000
Si       1.38245085       1.35617508      -1.37209709       0.00000000
Si      -1.49090967       1.21855716       1.47477921       0.00000000
Si       2.75397111      -0.20887038       2.47100544       0.00000000
Si      -2.67434559       2.70122409      -0.00443455       0.00000000
Si      -2.69529453      -2.70723510       0.01402555       0.00000000
Si      -2.69135235      -0.00656487      -2.73006551       0.00000000
Si       2.70699075       2.71886616      -0.02316965       0.00000000
Si       0.02212182       2.70901071      -2.72944674       0.00000000
