10
Lattice="16.28999089631971 0.0 0.0 0.0 16.28999089631971 0.0 0.0 0.0 34.376317263855086" Properties=species:S:1:pos:R:3:initial_magmoms:R:1 pbc="T T T"
Si       1.06823304       2.07961398      -0.34950421       0.00000000
Si       0.12372255      -0.70366284       2.27169144       0.00000000
Si       1.45427346      -1.62072468      -1.03929978       0.00000000
Si      -2.30536080       0.23496696      -0.73726929       0.00000000
Si       0.50059170      -1.28645388      -3.20205261       0.00000000
Si       3.27083652       1.49177304      -0.01100043       0.00000000
Si      -1.54140867      -2.40562575       2.45457355       0.00000000
Si       3.58862184      -0.56777166      -1.01386129       0.00000000
Si      -2.92653108      -2.01714183      -1.27543084       0.00000000
Si      -3.41387901       1.45722195       0.94576177       0.00000000
