10
Lattice="16.28999089631971 0.0 0.0 0.0 16.28999089631971 0.0 0.0 0.0 34.376317263855086" Properties=species:S:1:pos:R:3:initial_magmoms:R:1 pbc="T T T"
Si       0.82165131       1.87745508      -1.23635667       0.00000000
Si      -1.66159629      -1.21660236      -1.22384368       0.00000000
Si      -1.26630315       1.34835588       1.55670833       0.00000000
Si       1.43951472      -1.34177472       1.54819675       0.00000000
Si       2.04147909      -1.79514171      -2.47070778       0.00000000
Si      -2.53884537       2.76859953       0.14953019       0.00000000
Si       2.68359831       2.72666907       0.15120432       0.00000000
Si      -2.72025081      -2.71788876       0.19892898       0.00000000
Si       2.74413195      -2.76286545       0.19184058       0.00000000
Si      -2.62571994       0.00114030       2.93051737       0.00000000
