10
Lattice="16.28999089631971 0.0 0.0 0.0 16.28999089631971 0.0 0.0 0.0 34.376317263855086" Properties=species:S:1:pos:R:3:initial_magmoms:R:1 pbc="T T T"
Si      -1.35599589      -1.35722388       1.35793404       0.00000000
Si       1.35889551       1.35770566       1.35769341       0.00000000
Si      -1.35708732       1.36170811      -1.35614647       0.00000000
Si       1.36111095      -1.35808725      -1.36154356       0.00000000
Si      -2.71278999       2.71256288       0.00106567       0.00000000
Si      -2.71417464      -2.71476732       0.00110004       0.00000000
Si      -2.71339272      -0.00006018       2.71586809       0.00000000
Si       0.00175932      -2.71475103       2.71507743       0.00000000
Si       0.00179190       2.71456655       2.71555870       0.00000000
Si       2.71630863       0.00018668       2.71545557       0.00000000
