10
Lattice="16.28999089631971 0.0 0.0 0.0 16.28999089631971 0.0 0.0 0.0 34.376317263855086" Properties=species:S:1:pos:R:3:initial_magmoms:R:1 pbc="T T T"
Si      -2.25235314       0.60914826      -0.30732445       0.00000000
Si       0.82691298      -1.80112014       1.31936379       0.00000000
Si       0.01062108      -1.12832685      -2.10008477       0.00000000
Si       1.54072449       1.82016315       0.37576773       0.00000000
Si      -3.16117224      -1.53977967       0.24943470       0.00000000
Si       2.31396192      -1.62388494      -2.31139611       0.00000000
Si      -0.36515664      -1.66205241       3.28586212       0.00000000
Si       3.01723380      -1.14952014       1.90596160       0.00000000
Si       2.35947618       2.39910975      -1.73669252       0.00000000
Si      -2.50303995       1.49848452      -2.52717638       0.00000000
