10
Lattice="16.28999089631971 0.0 0.0 0.0 16.28999089631971 0.0 0.0 0.0 34.376317263855086" Properties=species:S:1:pos:R:3:initial_magmoms:R:1 pbc="T T T"
Si       2.30334084      -0.49555809      -0.21131134       0.00000000
Si      -0.01062108       1.12832685       2.10008477       0.00000000
Si      -1.08150939       1.16967087      -1.77808163       0.00000000
Si      -0.82863972      -2.38385628      -0.53558332       0.00000000
Si      -2.26297422       1.73747511       1.79276032       0.00000000
Si       0.81629190      -0.67279329       3.41944857       0.00000000
Si      -2.51366103       2.62681137      -0.42709160       0.00000000
Si       2.88240147       0.09730017      -2.57863775       0.00000000
Si       3.57456357       1.52836038      -0.04572053       0.00000000
Si      -0.67961880      -2.41179725      -2.98854119       0.00000000
