10
Lattice="16.28999089631971 0.0 0.0 0.0 16.28999089631971 0.0 0.0 0.0 34.376317263855086" Properties=species:S:1:pos:R:3:initial_magmoms:R:1 pbc="T T T"
Si       0.14902092      -0.02794097      -2.45295787       0.00000000
Si       0.82863972       2.38385628       0.53558332       0.00000000
Si      -2.02961997      -0.10058767       1.59196814       0.00000000
Si       1.71781308      -2.05177129      -0.03499511       0.00000000
Si      -0.84864384      -1.36720033       3.23171939       0.00000000
Si       3.13198056       1.88829819       0.32427198       0.00000000
Si      -0.25286967       3.55352715      -1.24249831       0.00000000
Si       2.81399976      -1.57411591       1.98530218       0.00000000
Si      -0.71187300       2.07105570      -3.24351048       0.00000000
Si       1.44001971      -0.66949963       3.66279865       0.00000000
