10
Lattice="16.28999089631971 0.0 0.0 0.0 16.28999089631971 0.0 0.0 0.0 34.376317263855086" Properties=species:S:1:pos:R:3:initial_magmoms:R:1 pbc="T T T"
Si      -1.19206962       0.13906773       1.96649833       0.00000000
Si       2.19032082       0.65160000       0.58659781       0.00000000
Si      -0.82691298       1.80112014      -1.31936379       0.00000000
Si      -0.20491191      -2.38056263      -0.29223324       0.00000000
Si      -0.81629190       0.67279329      -3.41944857       0.00000000
Si      -3.39073092      -0.26260946       1.20880950       0.00000000
Si      -0.19409535      -1.65393966       3.34481754       0.00000000
Si       3.68729037      -0.72243381      -0.51217304       0.00000000
Si      -1.43335710       2.45534283       2.52232931       0.00000000
Si       0.71381151       3.62128329      -0.94359606       0.00000000
