10
Lattice="16.28999089631971 0.0 0.0 0.0 16.28999089631971 0.0 0.0 0.0 34.376317263855086" Properties=species:S:1:pos:R:3:initial_magmoms:R:1 pbc="T T T"
Si       1.83545946       1.04902192       1.06181628       0.00000000
Si      -1.54929303      -1.17860530       1.38681017       0.00000000
Si       0.77229261      -1.69700197      -1.54085053       0.00000000
Si      -0.99797427       1.79300739      -1.37831921       0.00000000
Si      -2.49878826      -2.41653127      -0.40210001       0.00000000
Si       0.74005470       2.73533502       2.29018591       0.00000000
Si      -0.01081656      -0.72662296      -3.63705078       0.00000000
Si       0.19409535       1.65393966      -3.34481754       0.00000000
Si       2.76229530       2.54521443      -0.48721582       0.00000000
Si      -0.60377256      -3.61643638      -1.15205416       0.00000000
