10
Lattice="16.28999089631971 0.0 0.0 0.0 16.28999089631971 0.0 0.0 0.0 34.376317263855086" Properties=species:S:1:pos:R:3:initial_magmoms:R:1 pbc="T T T"
Si      -1.68593355      -0.94007798       1.35387561       0.00000000
Si      -0.21131388       0.39881178      -2.47547437       0.00000000
Si       1.02962574       1.83552462       1.40848586       0.00000000
Si       1.74614139      -1.85424346      -0.13444585       0.00000000
Si       1.61477883       1.90044027      -2.06863042       0.00000000
Si      -0.36900108      -2.16587672       2.89834253       0.00000000
Si       3.03262785       0.00777033      -2.09795344       0.00000000
Si      -2.72196126      -2.57946353       0.00336888       0.00000000
Si       2.35053297       0.53893836       2.88789900       0.00000000
Si       0.87713505      -3.51727883       1.47669883       0.00000000
