10
Lattice="16.28999089631971 0.0 0.0 0.0 16.28999089631971 0.0 0.0 0.0 34.376317263855086" Properties=species:S:1:pos:R:3:initial_magmoms:R:1 pbc="T T T"
Si      -1.36094805      -1.35674523       1.35054313       0.00000000
Si      -1.35653346       1.35508365      -1.35882783       0.00000000
Si       1.35791811      -1.35954711      -1.35738402       0.00000000
Si       1.36899531       1.35338949       1.36288424       0.00000000
Si      -0.06180426       2.70368388       2.63360551       0.00000000
Si       2.71347417      -2.71446786       0.00309387       0.00000000
Si      -2.71355562      -0.00206883      -2.71452741       0.00000000
Si      -2.71171485       2.71640637      -0.00030939       0.00000000
Si       2.71663443       2.71155195       0.00068753       0.00000000
Si       0.00171045       2.71358820      -2.71469929       0.00000000
