10
Lattice="16.28999089631971 0.0 0.0 0.0 16.28999089631971 0.0 0.0 0.0 34.376317263855086" Properties=species:S:1:pos:R:3:initial_magmoms:R:1 pbc="T T T"
Si      -0.63754173       1.83169647       1.35360263       0.00000000
Si       2.17298826      -0.68297454       0.69282069       0.00000000
Si      -1.49550345      -1.88032212       0.07758739       0.00000000
Si      -0.01397682       0.94457565      -2.21146410       0.00000000
Si      -2.81439072       2.31153471       0.66669467       0.00000000
Si       0.79451217       3.61830222       0.70413050       0.00000000
Si      -1.36024758      -2.71197549       2.30348955       0.00000000
Si       2.95557615      -2.43155943      -0.64703141       0.00000000
Si       2.63269206       2.83535595      -0.49907565       0.00000000
Si      -3.66893154      -1.18677537      -0.63128704       0.00000000
