10
Lattice="16.28999089631971 0.0 0.0 0.0 16.28999089631971 0.0 0.0 0.0 34.376317263855086" Properties=species:S:1:pos:R:3:initial_magmoms:R:1 pbc="T T T"
Si       0.78258789      -1.74858489      -1.33985209       0.00000000
Si       0.16765668      -1.16092314       2.05474238       0.00000000
Si       1.59223347       1.76378346      -0.03709207       0.00000000
Si      -2.17298826       0.68297454      -0.69282069       0.00000000
Si       2.77724952      -2.38604517      -0.18484156       0.00000000
Si       0.45970380       3.51833049      -1.19189634       0.00000000
Si      -2.81052999       2.51467101       0.66078194       0.00000000
Si      -1.36458072      -2.91452535       2.12607328       0.00000000
Si       2.31515109      -2.08608111       2.27770730       0.00000000
Si      -3.66849171      -1.19734758      -0.61523329       0.00000000
