10
Lattice="16.28999089631971 0.0 0.0 0.0 16.28999089631971 0.0 0.0 0.0 34.376317263855086" Properties=species:S:1:pos:R:3:initial_magmoms:R:1 pbc="T T T"
Si       1.97143209       1.26718281       0.00072190       0.00000000
Si      -0.06897186      -0.17962983      -2.38389581       0.00000000
Si      -2.02118175       1.11276990       0.73005026       0.00000000
Si       0.52794261      -1.83746313       1.53266896       0.00000000
Si      -2.08544580       2.28986901      -1.31871064       0.00000000
Si      -2.27157534       0.40821111      -2.72239959       0.00000000
Si       3.04052850       0.42810120       1.88588582       0.00000000
Si      -1.29815010      -3.33909162       1.12582502       0.00000000
Si       3.09760866       0.87436575      -2.04295130       0.00000000
Si       1.68860511       3.56343750      -0.23114649       0.00000000
