10
Lattice="16.28999089631971 0.0 0.0 0.0 16.28999089631971 0.0 0.0 0.0 34.376317263855086" Properties=species:S:1:pos:R:3:initial_magmoms:R:1 pbc="T T T"
Si       0.12439044      -1.58943159      -1.64466707       0.00000000
Si       1.84751406       1.39984857      -0.40536576       0.00000000
Si      -1.73742624       1.42135137      -0.79698098       0.00000000
Si       0.01397682      -0.94457565       2.21146410       0.00000000
Si       2.64666888       1.89078030       1.71238845       0.00000000
Si      -0.62356491       0.88712082       3.56506673       0.00000000
Si      -2.32142274       2.74820445       1.02829935       0.00000000
Si      -0.47601009      -0.58266072      -3.70497842       0.00000000
Si       2.40823215      -1.92153582      -2.28035428       0.00000000
Si       1.05246432       3.61996380      -0.78628994       0.00000000
