10
Lattice="16.28999089631971 0.0 0.0 0.0 16.28999089631971 0.0 0.0 0.0 34.376317263855086" Properties=species:S:1:pos:R:3:initial_magmoms:R:1 pbc="T T T"
Si       1.35555606      -1.35492075       1.36047789       0.00000000
Si      -1.35646830      -1.35760860      -1.35721214       0.00000000
Si       1.35822762       1.35799956      -1.35759028       0.00000000
Si      -1.35791811       1.35954711       1.35738402       0.00000000
Si      -2.71886616       0.00280188       2.70792715       0.00000000
Si      -2.71375110      -0.00009774      -2.71480242       0.00000000
Si      -2.71445157       2.71463076      -0.00144381       0.00000000
Si       0.00133578       2.71480995      -2.71442428       0.00000000
Si       0.00063531      -2.71446949      -2.71507743       0.00000000
Si       2.71552671       2.71430496       0.00017188       0.00000000
