10
Lattice="16.28999089631971 0.0 0.0 0.0 16.28999089631971 0.0 0.0 0.0 34.376317263855086" Properties=species:S:1:pos:R:3:initial_magmoms:R:1 pbc="T T T"
Si       0.08791713       1.43949843       1.85357206       0.00000000
Si       1.95724024      -1.21021668      -0.48515324       0.00000000
Si      -0.78390153       1.30613220      -1.80355449       0.00000000
Si      -1.42776378      -1.83508479       0.55699978       0.00000000
Si      -2.75339511       1.83699072      -0.65249724       0.00000000
Si      -0.91283688      -0.08768907       3.33429838       0.00000000
Si      -1.98413244       2.58157404       1.46123493       0.00000000
Si       1.23210718      -3.44489517      -0.69227066       0.00000000
Si      -0.75102831      -0.14475294      -3.70721288       0.00000000
Si      -2.87710137      -2.08450098      -1.31025406       0.00000000
