10
Lattice="16.28999089631971 0.0 0.0 0.0 16.28999089631971 0.0 0.0 0.0 34.376317263855086" Properties=species:S:1:pos:R:3:initial_magmoms:R:1 pbc="T T T"
Si      -0.63157959       1.75521722      -1.37563786       0.00000000
Si      -1.39281129      -1.60700850       0.99058851       0.00000000
Si       1.68490795       0.68046588       1.57728945       0.00000000
Si       1.83187796      -0.69522462      -1.40059508       0.00000000
Si       2.71613663       1.29493838      -0.44582671       0.00000000
Si       2.13618656      -1.59404166       2.05573930       0.00000000
Si       2.74088114      -2.44113795      -0.10024140       0.00000000
Si       1.35970091       3.05346995      -1.52094663       0.00000000
Si       0.03536559      -2.47467906       2.75330392       0.00000000
Si      -2.12854914       3.12925103      -0.27686701       0.00000000
