10
Lattice="16.28999089631971 0.0 0.0 0.0 16.28999089631971 0.0 0.0 0.0 34.376317263855086" Properties=species:S:1:pos:R:3:initial_magmoms:R:1 pbc="T T T"
Si       1.10851821      -1.22225499      -1.68303106       0.00000000
Si      -2.17566471      -0.92038500       0.22495875       0.00000000
Si       0.66642390       0.55371339       2.21290791       0.00000000
Si      -0.31363137       2.17803816      -1.00640163       0.00000000
Si      -1.21862395      -0.56837439       3.05217179       0.00000000
Si       0.60093810       0.24268842      -3.59194902       0.00000000
Si      -3.11418278       0.37919862       1.95749173       0.00000000
Si      -1.21893997       3.52867464       0.72289998       0.00000000
Si       3.41387901      -1.45722195      -0.94576177       0.00000000
Si      -1.20983875       1.82700495      -3.19727430       0.00000000
