10
Lattice="16.28999089631971 0.0 0.0 0.0 16.28999089631971 0.0 0.0 0.0 34.376317263855086" Properties=species:S:1:pos:R:3:initial_magmoms:R:1 pbc="T T T"
Si      -1.10851821       1.22225499       1.68303106       0.00000000
Si      -0.62117028      -2.25210879      -0.53816155       0.00000000
Si       2.30536080      -0.23496696       0.73726929       0.00000000
Si      -0.50758011       1.46494341      -1.90891796       0.00000000
Si       0.45952461      -1.94328297      -2.64068704       0.00000000
Si      -0.73625913      -0.13623327      -3.61975948       0.00000000
Si      -1.42214958       3.40029315       0.67662943       0.00000000
Si      -3.28418292       0.30186999       1.90798980       0.00000000
Si       3.37359384       1.84464702       0.38776508       0.00000000
Si       0.10303425      -3.72923386       1.19028065       0.00000000
