10
Lattice="16.28999089631971 0.0 0.0 0.0 16.28999089631971 0.0 0.0 0.0 34.376317263855086" Properties=species:S:1:pos:R:3:initial_magmoms:R:1 pbc="T T T"
Si      -1.35417891      -1.35609363      -1.35807155       0.00000000
Si      -1.35233783       1.36080144       1.35910284       0.00000000
Si       1.36013355       1.35920502      -1.35772779       0.00000000
Si       1.36174626      -1.35325917       1.36274673       0.00000000
Si      -2.71255283      -2.71415835      -0.00017188       0.00000000
Si      -2.71224332       0.00193851      -2.71500868       0.00000000
Si       0.00282632      -2.71324611      -2.71524931       0.00000000
Si      -2.71325330       2.71616202      -0.00065315       0.00000000
Si       2.71627605       2.71551042      -0.00030939       0.00000000
Si       0.00298433       2.71669959      -2.71518056       0.00000000
