10
Lattice="16.28999089631971 0.0 0.0 0.0 16.28999089631971 0.0 0.0 0.0 34.376317263855086" Properties=species:S:1:pos:R:3:initial_magmoms:R:1 pbc="T T T"
Si      -1.14771262       1.75891275       1.11183385       0.00000000
Si       2.06851072      -0.07113843       1.26058026       0.00000000
Si      -0.63201616       1.07649207      -2.09221259       0.00000000
Si      -1.19453008      -2.16876915      -0.04592679       0.00000000
Si       0.45026537       3.26637306       0.28738617       0.00000000
Si       2.54981506       2.24968158       0.78106474       0.00000000
Si       0.45774248      -0.39987063      -3.57740783       0.00000000
Si      -3.16402366      -1.63791063       1.10513047       0.00000000
Si       0.53979196       3.16723212      -2.07698387       0.00000000
Si       1.56021385      -0.48426912       3.54688164       0.00000000
