10
Lattice="16.28999089631971 0.0 0.0 0.0 16.28999089631971 0.0 0.0 0.0 34.376317263855086" Properties=species:S:1:pos:R:3:initial_magmoms:R:1 pbc="T T T"
Si      -1.97524462       0.01925478      -1.20698755       0.00000000
Si       1.09966297      -1.76987592      -1.04321868       0.00000000
Si       0.17377195      -0.88817967       2.17069377       0.00000000
Si       0.55319863       2.32503912       0.08566583       0.00000000
Si       2.18162848       0.17558991       2.79149603       0.00000000
Si      -0.78326230      -3.32100972      -0.97890056       0.00000000
Si      -3.61530553       1.18521153      -0.04207664       0.00000000
Si      -2.85531187      -2.17893411      -1.37123769       0.00000000
Si       2.86709539       2.57523723      -0.15737487       0.00000000
Si      -1.60826350       0.47330595      -3.47826648       0.00000000
