10
Lattice="16.28999089631971 0.0 0.0 0.0 16.28999089631971 0.0 0.0 0.0 34.376317263855086" Properties=species:S:1:pos:R:3:initial_magmoms:R:1 pbc="T T T"
Si      -1.35739599       1.35725511       1.35728089       0.00000000
Si      -1.35775632      -1.35728777      -1.35734965       0.00000000
Si       1.35746362      -1.35826339       1.35734965       0.00000000
Si       1.35860392       1.35699447      -1.35776216       0.00000000
Si       2.71311742      -0.00192874       2.71394301       0.00000000
Si      -0.00103767       2.71432614       2.71414927       0.00000000
Si       2.71497448       2.71465194       0.00013751       0.00000000
Si      -2.71492954       2.71484742      -0.00034376       0.00000000
Si      -2.71499470      -2.71530095      -0.00037814       0.00000000
Si      -0.00206883      -2.71611545       2.71428678       0.00000000
