10
Lattice="16.28999089631971 0.0 0.0 0.0 16.28999089631971 0.0 0.0 0.0 34.376317263855086" Properties=species:S:1:pos:R:3:initial_magmoms:R:1 pbc="T T T"
Si      -0.90321534      -1.54098513      -1.49822387       0.00000000
Si      -2.03784642       0.38763684       1.23046659       0.00000000
Si       1.26715023      -0.43868970       2.00630613       0.00000000
Si       1.55864349       1.28202300      -1.46797270       0.00000000
Si      -2.63984011       2.28294576      -0.06576193       0.00000000
Si      -2.32670233      -0.07579737      -2.95131162       0.00000000
Si      -2.11989589      -3.17946591      -0.26995737       0.00000000
Si      -3.20965454      -1.70310321       1.21523787       0.00000000
Si       2.78948331       2.66149278       0.08587209       0.00000000
Si       3.08058561       1.19531133       2.04834839       0.00000000
