10
Lattice="16.28999089631971 0.0 0.0 0.0 16.28999089631971 0.0 0.0 0.0 34.376317263855086" Properties=species:S:1:pos:R:3:initial_magmoms:R:1 pbc="T T T"
Si       1.35469269      -1.36021011      -1.36229984       0.00000000
Si      -1.35946240       1.35604476      -1.36209358       0.00000000
Si       1.35317772       1.36871838       1.38168809       0.00000000
Si      -1.36465565      -1.38148648       1.37075642       0.00000000
Si      -0.24009831       2.55669921       2.81023113       0.00000000
Si       2.62834263      -0.08089614       2.78104562       0.00000000
Si      -2.71255283       2.71251306      -0.00553459       0.00000000
Si      -2.71287863      -2.71443732      -0.00364389       0.00000000
Si       2.71461447       2.71678104      -0.00268135       0.00000000
Si       2.71746522      -2.71428862       0.00030939       0.00000000
