10
Lattice="16.28999089631971 0.0 0.0 0.0 16.28999089631971 0.0 0.0 0.0 34.56409401068381" Properties=species:S:1:pos:R:3:initial_magmoms:R:1 pbc="T T T"
Si       0.93976358       1.72774021      -1.32735670       0.00000000
Si      -1.38090071       1.29535474       1.44083963       0.00000000
Si      -1.47971585      -1.21720998      -1.45538217       0.00000000
Si       1.34896838      -1.40989416       1.42441131       0.00000000
Si       1.93610885       0.02196381      -2.89833021       0.00000000
Si      -2.69977169       2.66656549       0.02167170       0.00000000
Si      -2.68020740      -2.73580843       0.02353816       0.00000000
Si      -0.01668748       2.65913725       2.80690671       0.00000000
Si       2.76092042       2.72675704      -0.04051605       0.00000000
Si      -0.97123261       3.44728003      -1.50874916       0.00000000
