10
Lattice="16.28999089631971 0.0 0.0 0.0 16.28999089631971 0.0 0.0 0.0 34.56409401068381" Properties=species:S:1:pos:R:3:initial_magmoms:R:1 pbc="T T T"
Si       0.75103090      -1.65594366       1.49908016       0.00000000
Si       1.32176734       1.38175038      -1.41546957       0.00000000
Si      -1.40484375      -1.34594496      -1.43302814       0.00000000
Si      -1.81145844       0.94626981       1.37212617       0.00000000
Si      -2.68839801       2.54259207      -0.11005214       0.00000000
Si      -0.78564878       2.90307348       2.17325319       0.00000000
Si       2.22933211      -0.54380907       2.91852460       0.00000000
Si       2.60400211      -2.78940512       0.10524773       0.00000000
Si       2.67634600       0.03316644      -2.76606230       0.00000000
Si      -0.03619801      -2.70286124      -2.75990989       0.00000000
