10
Lattice="16.28999089631971 0.0 0.0 0.0 16.28999089631971 0.0 0.0 0.0 34.56409401068381" Properties=species:S:1:pos:R:3:initial_magmoms:R:1 pbc="T T T"
Si      -1.80375327      -1.47831750       0.17496354       0.00000000
Si       2.01469507      -0.81827928      -0.87191432       0.00000000
Si      -1.00238301       1.35005004      -1.73079797       0.00000000
Si       0.39347192       1.14878709       2.12330805       0.00000000
Si      -2.96461125      -0.66435507       2.01774924       0.00000000
Si       3.23525590       1.13171517      -1.30569395       0.00000000
Si      -1.29902391       2.76394126       2.14228374       0.00000000
Si      -3.51825948      -0.59709366      -1.16958047       0.00000000
Si      -3.07886931       2.11761596      -0.86078468       0.00000000
Si       0.56202455       3.06740441      -2.33131488       0.00000000
