10
Lattice="16.28999089631971 0.0 0.0 0.0 16.28999089631971 0.0 0.0 0.0 34.56409401068381" Properties=species:S:1:pos:R:3:initial_magmoms:R:1 pbc="T T T"
Si      -1.35039213      -1.34185244       1.36939215       0.00000000
Si      -1.48913406       1.24130566      -1.32940147       0.00000000
Si       1.35718506       1.38180691       1.36545184       0.00000000
Si       1.38008880      -1.40538344      -1.42644022       0.00000000
Si       0.50266053       1.82103743      -2.62352853       0.00000000
Si       2.47477680       0.25216220      -2.90074279       0.00000000
Si      -2.70990666      -2.70081311      -0.01178982       0.00000000
Si      -0.00066789      -2.69402018       2.72713965       0.00000000
Si       2.72873790      -2.70672638      -0.00784605       0.00000000
Si      -2.71417464       0.01980623       2.72499667       0.00000000
