10
Lattice="16.28999089631971 0.0 0.0 0.0 16.28999089631971 0.0 0.0 0.0 34.56409401068381" Properties=species:S:1:pos:R:3:initial_magmoms:R:1 pbc="T T T"
Si       1.35648459      -1.35312903       1.36030524       0.00000000
Si      -1.35780408      -1.35610946      -1.35646863       0.00000000
Si       1.35702216       1.35816246      -1.35615755       0.00000000
Si      -1.35597960       1.35736425       1.36165324       0.00000000
Si      -2.71422025      -2.71198268       0.00062215       0.00000000
Si      -0.00030951      -2.71395377      -2.71387049       0.00000000
Si       2.71406061      -2.71393748       0.00172821       0.00000000
Si      -2.71505104       0.00146936      -2.71359397       0.00000000
Si       2.71503801       0.00112401      -2.71376679       0.00000000
Si      -0.00053757       2.71601541      -2.71352484       0.00000000
