10
Lattice="16.28999089631971 0.0 0.0 0.0 16.28999089631971 0.0 0.0 0.0 34.56409401068381" Properties=species:S:1:pos:R:3:initial_magmoms:R:1 pbc="T T T"
Si      -0.99173520       1.84516830      -1.01597755       0.00000000
Si      -1.81903914      -1.17006998       0.95576686       0.00000000
Si       1.60406001       1.02447810       1.43254424       0.00000000
Si       1.22797278      -1.33485962      -2.01000688       0.00000000
Si       1.37269314       2.51897157      -1.91619988       0.00000000
Si       2.15091531      -2.73812813       0.40260279       0.00000000
Si       2.93819472       1.89029160      -0.31781702       0.00000000
Si      -2.47003641       0.73303371      -2.43542199       0.00000000
Si      -0.99696429      -2.01807755       3.00611006       0.00000000
Si      -2.06479008      -3.14746325      -0.36233560       0.00000000
