10
Lattice="16.28999089631971 0.0 0.0 0.0 16.28999089631971 0.0 0.0 0.0 34.56409401068381" Properties=species:S:1:pos:R:3:initial_magmoms:R:1 pbc="T T T"
Si       0.77411057      -1.89660560       1.12157091       0.00000000
Si       2.09131346       1.08600543      -0.10590444       0.00000000
Si      -1.91862384       1.00727586       1.09194947       0.00000000
Si       0.35153983      -2.23896113      -1.75419788       0.00000000
Si       1.27565035       3.18899556      -0.52827791       0.00000000
Si       1.77597164      -0.78363045       2.98481857       0.00000000
Si      -2.23704447      -0.53067933       2.85233432       0.00000000
Si       2.83063511       1.19936754       2.15911647       0.00000000
Si      -0.58821954       1.52102988      -3.42129419       0.00000000
Si       3.45257102       0.03095100      -1.87489576       0.00000000
