10
Lattice="16.28999089631971 0.0 0.0 0.0 16.28999089631971 0.0 0.0 0.0 34.56409401068381" Properties=species:S:1:pos:R:3:initial_magmoms:R:1 pbc="T T T"
Si      -1.66426785       1.15007400       1.21043525       0.00000000
Si      -1.35770634      -1.46145735      -1.29898851       0.00000000
Si       1.83040956      -0.52531992       1.42932978       0.00000000
Si       1.45961658       1.42247538      -1.24817926       0.00000000
Si       0.00780291       2.61716769      -2.66050350       0.00000000
Si       2.71104696      -0.09097965      -2.63651600       0.00000000
Si      -2.72238643      -0.09892917      -2.66081457       0.00000000
Si      -2.73832782       2.68363089      -0.10967193       0.00000000
Si      -0.00312768      -2.81004129      -2.64958124       0.00000000
Si       1.23100272      -0.16192260       3.69020300       0.00000000
