10
Lattice="16.28999089631971 0.0 0.0 0.0 16.28999089631971 0.0 0.0 0.0 34.56409401068381" Properties=species:S:1:pos:R:3:initial_magmoms:R:1 pbc="T T T"
Si       1.39997889       1.50006465      -1.12530384       0.00000000
Si       0.71236170      -1.41928254       1.78188373       0.00000000
Si      -0.94892508      -1.45666809      -1.64307426       0.00000000
Si      -1.96358031       1.35454608       0.24329679       0.00000000
Si      -2.53553850      -2.33538327      -0.03072750       0.00000000
Si      -1.60388082       0.33371694      -3.14008057       0.00000000
Si      -1.96836957       2.31575382      -1.91357301       0.00000000
Si      -1.42285005      -2.58106905       2.06382321       0.00000000
Si       2.44931553       2.61939942       0.63117527       0.00000000
Si      -3.71337066      -0.26746551       0.16967523       0.00000000
