10
Lattice="16.28999089631971 0.0 0.0 0.0 16.28999089631971 0.0 0.0 0.0 34.56409401068381" Properties=species:S:1:pos:R:3:initial_magmoms:R:1 pbc="T T T"
Si       1.28637243       1.32488199       1.52005854       0.00000000
Si      -1.44319626       1.43708751      -1.28032389       0.00000000
Si       1.90970928      -0.57581892      -1.46797246       0.00000000
Si      -1.52394579      -1.39354434       1.60887449       0.00000000
Si       3.19228614       2.03804190       0.10656116       0.00000000
Si      -3.04678386       2.41264674       0.24906900       0.00000000
Si       2.47733433      -0.11305260       3.07190082       0.00000000
Si      -0.20975004       2.59880886       3.08010980       0.00000000
Si       1.51184232      -2.74519080      -2.59106419       0.00000000
Si      -3.34510263      -2.39256117       0.32203384       0.00000000
