10
Lattice="16.28999089631971 0.0 0.0 0.0 16.28999089631971 0.0 0.0 0.0 34.56409401068381" Properties=species:S:1:pos:R:3:initial_magmoms:R:1 pbc="T T T"
Si      -0.53993205       1.90040769       1.25135916       0.00000000
Si      -1.92078648      -1.36673100       0.15743954       0.00000000
Si       0.16374708       0.44333235      -2.33432196       0.00000000
Si       2.04279858      -0.93641436       0.83137062       0.00000000
Si      -1.31689989       0.89050914       3.28338338       0.00000000
Si      -1.34420193      -3.23599221      -1.19235822       0.00000000
Si       3.41503560       0.94438017       1.23829392       0.00000000
Si       2.52892476       0.79065144      -2.79011892       0.00000000
Si      -3.77382285      -0.14916753      -0.82670446       0.00000000
Si       1.57967388      -2.12949396       2.88019300       0.00000000
