10
Lattice="16.28999089631971 0.0 0.0 0.0 16.28999089631971 0.0 0.0 0.0 34.56409401068381" Properties=species:S:1:pos:R:3:initial_magmoms:R:1 pbc="T T T"
Si      -1.94158881      -1.30794039      -0.25446100       0.00000000
Si      -0.39931677       2.02579182       1.17110129       0.00000000
Si       0.64773927       0.50521806      -2.23142459       0.00000000
Si       1.72527390      -1.38864105       0.87025525       0.00000000
Si       2.80212435      -2.02626423      -1.11725040       0.00000000
Si       2.99159334       0.03036456      -2.23837198       0.00000000
Si      -2.73183300      -1.69754832       1.91581967       0.00000000
Si      -2.71037907       0.60836634       2.51211976       0.00000000
Si      -2.00192697       3.33125613       0.06439294       0.00000000
Si      -3.56162931      -0.18122625      -1.54746992       0.00000000
