10
Lattice="16.28999089631971 0.0 0.0 0.0 16.28999089631971 0.0 0.0 0.0 34.56409401068381" Properties=species:S:1:pos:R:3:initial_magmoms:R:1 pbc="T T T"
Si      -1.64155959      -1.24379037      -1.11414309       0.00000000
Si       1.23443991      -1.45862289       1.44368080       0.00000000
Si      -1.47496176       1.26352357       1.43994787       0.00000000
Si       1.09701747       1.52277521      -1.63807079       0.00000000
Si       2.45521251       2.48349588       0.12606915       0.00000000
Si      -0.47382723      -2.89251756      -2.25358852       0.00000000
Si       2.59395444      -0.09966222       2.82486277       0.00000000
Si      -0.13263318       2.62231274       2.82126810       0.00000000
Si       2.42274654      -3.03427314       0.02719159       0.00000000
Si      -2.82393014       2.67341773       0.01553657       0.00000000
