10
Lattice="16.28999089631971 0.0 0.0 0.0 16.28999089631971 0.0 0.0 0.0 34.56409401068381" Properties=species:S:1:pos:R:3:initial_magmoms:R:1 pbc="T T T"
Si       1.35676152       1.35656604      -1.35653776       0.00000000
Si      -1.35765747      -1.35860229      -1.35664145       0.00000000
Si      -1.35847197       1.35498591       1.36006330       0.00000000
Si       1.35360126      -1.36050822       1.36120391       0.00000000
Si       2.71365336       2.71394658       0.00117518       0.00000000
Si      -0.00071676       2.71393029      -2.71442351       0.00000000
Si       2.71454931      -0.00112401      -2.71390505       0.00000000
Si      -0.00087966      -2.71567332      -2.71418156       0.00000000
Si       2.71554300      -2.71466334       0.00103692       0.00000000
Si      -2.71462750       2.71590138       0.00006913       0.00000000
