10
Lattice="16.28999089631971 0.0 0.0 0.0 16.28999089631971 0.0 0.0 0.0 34.56409401068381" Properties=species:S:1:pos:R:3:initial_magmoms:R:1 pbc="T T T"
Si      -1.37725434       1.19519730      -1.43164557       0.00000000
Si       1.31214321      -1.51792826      -1.39518043       0.00000000
Si      -1.91063781      -0.97269219       1.40907521       0.00000000
Si       1.80330300       1.81516212       2.31686708       0.00000000
Si      -0.21217725      -0.73334322       3.44275851       0.00000000
Si       2.60758917       2.44998342      -0.08018874       0.00000000
Si      -2.70220149       2.48906313      -0.03670709       0.00000000
Si      -0.03758103       2.55264300      -2.77681174       0.00000000
Si       2.68231140      -0.16514802      -2.77511809       0.00000000
Si      -2.74567950      -0.16641864      -2.77321707       0.00000000
