10
Lattice="16.28999089631971 0.0 0.0 0.0 16.28999089631971 0.0 0.0 0.0 34.56409401068381" Properties=species:S:1:pos:R:3:initial_magmoms:R:1 pbc="T T T"
Si       0.50468049       2.24228592       0.25307844       0.00000000
Si      -0.06007752      -0.95454513       2.16157052       0.00000000
Si       1.96346628      -0.57220254      -1.21143761       0.00000000
Si      -2.14511607       0.33311421      -1.14047748       0.00000000
Si       0.28312020       2.79376758      -2.03980115       0.00000000
Si       1.70683362      -2.98589184      -1.53820674       0.00000000
Si      -0.64650123      -3.19917681       1.89570336       0.00000000
Si      -0.85760334       3.30349797       1.91481731       0.00000000
Si      -2.09776104       2.39233311      -2.30490790       0.00000000
Si       3.89853909      -0.69097293       0.18588580       0.00000000
