10
Lattice="16.28999089631971 0.0 0.0 0.0 16.28999089631971 0.0 0.0 0.0 34.56409401068381" Properties=species:S:1:pos:R:3:initial_magmoms:R:1 pbc="T T T"
Si       1.26363159       1.87286130      -0.85629134       0.00000000
Si      -2.32108784       0.70635069       0.01306523       0.00000000
Si       0.16335612      -1.42605918      -1.95740030       0.00000000
Si       1.53746649      -1.91963152       1.60733496       0.00000000
Si       0.54112122      -0.21385512       3.17830848       0.00000000
Si       1.83555720      -2.75683815      -1.05074905       0.00000000
Si      -1.36987497       1.50568470       2.99691601       0.00000000
Si      -2.27024675       2.04377598      -2.11608415       0.00000000
Si       0.10182879       3.65396103       0.98559569       0.00000000
Si      -0.28759506       3.30357942      -2.01947745       0.00000000
