10
Lattice="16.28999089631971 0.0 0.0 0.0 16.28999089631971 0.0 0.0 0.0 34.56409401068381" Properties=species:S:1:pos:R:3:initial_magmoms:R:1 pbc="T T T"
Si       1.07574273       0.49337523       2.06461818       0.00000000
Si       0.10145412       2.21904009      -0.91114459       0.00000000
Si       1.64004462      -1.45893240      -1.03961940       0.00000000
Si      -2.24937207      -0.75973302       0.79494004       0.00000000
Si      -1.86167007      -1.31533605      -1.40672485       0.00000000
Si       2.43196668       2.40251436      -1.01936483       0.00000000
Si      -0.31438071       2.23664958       2.86947812       0.00000000
Si       2.91994992       1.91875023       1.37924638       0.00000000
Si      -2.09815200       0.26764470      -3.11958405       0.00000000
Si      -0.23108994       3.67292259       0.95956891       0.00000000
