10
Lattice="16.28999089631971 0.0 0.0 0.0 16.28999089631971 0.0 0.0 0.0 34.56409401068381" Properties=species:S:1:pos:R:3:initial_magmoms:R:1 pbc="T T T"
Si      -1.35449721      -1.35702216       1.35709078       0.00000000
Si       1.35711990      -1.35710361      -1.35684883       0.00000000
Si       1.35698958       1.35720135       1.35764381       0.00000000
Si      -1.35736425       1.35715248      -1.35771294       0.00000000
Si      -0.00003258       2.71269225      -2.71449264       0.00000000
Si       2.71404432      -0.00004887      -2.71324833       0.00000000
Si       0.00011403      -2.71423980      -2.71345572       0.00000000
Si      -0.00384444      -2.71417464       2.71362854       0.00000000
Si      -2.71458189      -2.71423980      -0.00003456       0.00000000
Si       2.71502172      -2.71480995       0.00044933       0.00000000
