10
Lattice="16.28999089631971 0.0 0.0 0.0 16.28999089631971 0.0 0.0 0.0 34.56409401068381" Properties=species:S:1:pos:R:3:initial_magmoms:R:1 pbc="T T T"
Si       1.35555606      -1.35628911       1.36002873       0.00000000
Si      -1.34762283      -1.35290079      -1.37214691       0.00000000
Si      -1.35635427       1.36039419       1.35902637       0.00000000
Si       1.37847609       1.34547255      -1.37622202       0.00000000
Si      -0.11297115       2.55492360      -2.73668626       0.00000000
Si       2.71599912      -2.70977634       0.00120974       0.00000000
Si      -2.71332756      -2.71450044      -0.00003456       0.00000000
Si      -0.00032580      -2.71246419       2.71701582       0.00000000
Si      -2.71473502       0.00229689       2.71701582       0.00000000
Si       2.71526607       0.00244350       2.71670474       0.00000000
