10
Lattice="16.28999089631971 0.0 0.0 0.0 16.28999089631971 0.0 0.0 0.0 34.56409401068381" Properties=species:S:1:pos:R:3:initial_magmoms:R:1 pbc="T T T"
Si       2.07923931       1.02174138      -0.40097828       0.00000000
Si      -1.43899344       1.88661006       0.16570036       0.00000000
Si      -0.78788214      -1.21971375      -1.89162479       0.00000000
Si       0.09822870      -1.06598502       2.13678805       0.00000000
Si      -1.27400832      -2.94677955       1.72986474       0.00000000
Si      -2.26149183       1.61396433       2.37230792       0.00000000
Si       2.09458449       2.78036091       1.19228909       0.00000000
Si       2.37843774      -1.72266750       2.36605181       0.00000000
Si      -3.15305982      -1.56703284      -1.43582783       0.00000000
Si      -0.78415173       0.43279272       3.71280793       0.00000000
