10
Lattice="16.28999089631971 0.0 0.0 0.0 16.28999089631971 0.0 0.0 0.0 34.56409401068381" Properties=species:S:1:pos:R:3:initial_magmoms:R:1 pbc="T T T"
Si       0.65459736      -2.23679619      -0.33312892       0.00000000
Si       0.78788214       1.21971375       1.89162479       0.00000000
Si      -2.36517768      -0.34731909       0.45579696       0.00000000
Si       0.97640631       0.90660366      -2.39073059       0.00000000
Si      -1.72628388      -2.63823066      -0.59823567       0.00000000
Si       0.87615765      -2.78827785       1.95975066       0.00000000
Si      -2.19512637       3.06854730       0.21436663       0.00000000
Si      -0.65111130       3.10632381       2.05732515       0.00000000
Si      -2.52892476      -0.79065144       2.79011892       0.00000000
Si       2.86712145       2.24145513       1.49064652       0.00000000
