10
Lattice="16.28999089631971 0.0 0.0 0.0 16.28999089631971 0.0 0.0 0.0 34.56409401068381" Properties=species:S:1:pos:R:3:initial_magmoms:R:1 pbc="T T T"
Si      -1.47734010       1.18117161      -1.34050001       0.00000000
Si       1.68568920       0.89319699       1.33790770       0.00000000
Si       0.88238043      -1.49877774      -1.57601988       0.00000000
Si      -1.34100909      -0.21462075       1.97260851       0.00000000
Si       0.10366956       1.24611984       3.07997357       0.00000000
Si      -3.07258722      -0.54275022      -1.56295464       0.00000000
Si       2.92214907      -0.93740805       2.24659824       0.00000000
Si       0.78415173      -0.43279272      -3.71280793       0.00000000
Si      -0.65484171       1.45381734      -3.54710757       0.00000000
Si      -0.48985659      -3.37957227      -1.98294318       0.00000000
