10
Lattice="16.28999089631971 0.0 0.0 0.0 16.28999089631971 0.0 0.0 0.0 34.56409401068381" Properties=species:S:1:pos:R:3:initial_magmoms:R:1 pbc="T T T"
Si       1.44467865       1.46074059       1.10736506       0.00000000
Si      -0.18946899      -2.05662879       1.12112158       0.00000000
Si      -2.34385407       0.47485350       0.00694739       0.00000000
Si       1.34100909       0.21462075      -1.97260851       0.00000000
Si      -2.50854597      -1.33802802      -1.50353893       0.00000000
Si       3.02669829       1.10781774      -0.63470081       0.00000000
Si      -1.23880563      -3.17596356      -0.63535753       0.00000000
Si      -0.13633101       1.39579236      -3.31310852       0.00000000
Si      -1.26631944      -1.41900561       3.10862722       0.00000000
Si      -2.99159334      -0.03036456       2.23837198       0.00000000
