10
Lattice="16.28999089631971 0.0 0.0 0.0 16.28999089631971 0.0 0.0 0.0 34.56409401068381" Properties=species:S:1:pos:R:3:initial_magmoms:R:1 pbc="T T T"
Si       1.88439462      -1.19088045       0.57677136       0.00000000
Si      -1.04933664      -1.11933477      -1.75647911       0.00000000
Si      -1.07685045       0.63762318       1.98750564       0.00000000
Si       0.18946899       2.05662879      -1.12112158       0.00000000
Si      -2.15438508       2.53148229      -1.11417419       0.00000000
Si      -2.31907698       0.71860077      -2.62466051       0.00000000
Si      -2.80212435       2.02626423       1.11725040       0.00000000
Si      -2.44931553      -2.61939942      -0.63117527       0.00000000
Si       3.45276324       0.51823377       1.09582065       0.00000000
Si       2.21693868      -2.64476295      -1.29394215       0.00000000
