10
Lattice="16.28999089631971 0.0 0.0 0.0 16.28999089631971 0.0 0.0 0.0 34.56409401068381" Properties=species:S:1:pos:R:3:initial_magmoms:R:1 pbc="T T T"
Si       1.65750750      -1.56243906      -0.72363428       0.00000000
Si       1.11563694       0.47993598       2.06838785       0.00000000
Si      -0.91359207       1.67387895      -1.57491382       0.00000000
Si      -1.36950030      -2.17456839       1.76615706       0.00000000
Si      -0.69936228      -0.41469453       3.30190771       0.00000000
Si      -3.02748021      -1.32242220      -1.37333591       0.00000000
Si       2.77299783      -1.26814392       1.90296182       0.00000000
Si       0.33104538      -2.79902925      -2.35122381       0.00000000
Si       0.94185522       2.36558493      -2.87746243       0.00000000
Si      -2.54690892       0.46574739      -2.85039873       0.00000000
