10
Lattice="16.28999089631971 0.0 0.0 0.0 16.28999089631971 0.0 0.0 0.0 34.56409401068381" Properties=species:S:1:pos:R:3:initial_magmoms:R:1 pbc="T T T"
Si       1.34762283       1.35290079       1.37214691       0.00000000
Si      -1.36570473      -1.36159965       1.37211235       0.00000000
Si      -1.46328346       1.21629285      -1.42672019       0.00000000
Si       1.41190317      -1.29397986      -1.47531042       0.00000000
Si      -0.40925367      -2.29299669      -2.76215106       0.00000000
Si      -0.11093490       2.51221122      -2.83511591       0.00000000
Si      -2.32024986      -0.57345687      -2.94354353       0.00000000
Si       2.69684208      -2.70809847       0.00558210       0.00000000
Si       2.72609892       2.69837334      -0.00407511       0.00000000
Si       2.70317889      -0.00338832       2.73217564       0.00000000
