10
Lattice="16.28999089631971 0.0 0.0 0.0 16.28999089631971 0.0 0.0 0.0 34.56409401068381" Properties=species:S:1:pos:R:3:initial_magmoms:R:1 pbc="T T T"
Si      -1.34864910       1.30134294      -1.41859416       0.00000000
Si      -1.36994013      -1.34592867       1.36901194       0.00000000
Si       1.34614044       1.36663326       1.37430025       0.00000000
Si       1.34431596      -1.43415531      -1.47334026       0.00000000
Si      -2.59094079      -0.40961205      -2.56278625       0.00000000
Si       2.70703962      -2.70531288       0.00405091       0.00000000
Si       2.70809847       2.71701197       0.00983695       0.00000000
Si      -2.72873790       2.70672638       0.00784605       0.00000000
Si       2.70304857       0.01159848       2.73488201       0.00000000
Si      -0.01298313      -2.70570384       2.73432898       0.00000000
