10
Lattice="16.28999089631971 0.0 0.0 0.0 16.28999089631971 0.0 0.0 0.0 34.56409401068381" Properties=species:S:1:pos:R:3:initial_magmoms:R:1 pbc="T T T"
Si      -1.35907470      -1.35606105      -1.35684883       0.00000000
Si       1.35739683      -1.35755973       1.35712535       0.00000000
Si       1.35654975       1.35690787      -1.35923376       0.00000000
Si      -1.35785295       1.35824030       1.35729817       0.00000000
Si      -2.70879894      -0.00389331      -2.71459633       0.00000000
Si       0.00083079      -2.71414206       2.71411243       0.00000000
Si      -2.71487511      -2.71466334       0.00020738       0.00000000
Si       2.71500543      -2.71467963      -0.00024195       0.00000000
Si       2.71471221      -0.00061902       2.71552956       0.00000000
Si      -2.71479366       2.71546874      -0.00020738       0.00000000
