10
Lattice="16.28999089631971 0.0 0.0 0.0 16.28999089631971 0.0 0.0 0.0 34.56409401068381" Properties=species:S:1:pos:R:3:initial_magmoms:R:1 pbc="T T T"
Si       1.12528062      -2.00349081      -0.29846112       0.00000000
Si      -0.89003673       0.85869477      -2.00274842       0.00000000
Si       1.99127331       1.31715387       0.09906075       0.00000000
Si      -1.85152140       0.11100006       1.59292173       0.00000000
Si      -2.40112971       2.28893952       0.80209481       0.00000000
Si       1.51127217       2.59708442       2.05051602       0.00000000
Si      -0.31939803      -3.46423140      -1.40582618       0.00000000
Si      -2.85166224       2.03918776      -1.49393011       0.00000000
Si      -0.91046439       0.21646152       3.75314425       0.00000000
Si       2.45141694       2.28358500      -2.01297940       0.00000000
