10
Lattice="16.28999089631971 0.0 0.0 0.0 16.28999089631971 0.0 0.0 0.0 34.56409401068381" Properties=species:S:1:pos:R:3:initial_magmoms:R:1 pbc="T T T"
Si      -1.34884458      -1.35492313      -1.37941920       0.00000000
Si       1.40204772      -1.33136085       1.36448750       0.00000000
Si       1.37016819       1.35278024      -1.37993766       0.00000000
Si      -1.31214321       1.51792826       1.39518043       0.00000000
Si       2.32823196       0.40387145       2.59870286       0.00000000
Si      -2.68939755       2.71312556      -0.03646514       0.00000000
Si      -2.70889668      -2.70855200      -0.00041477       0.00000000
Si       2.73518874       2.69852972      -0.03224832       0.00000000
Si      -2.70272277      -0.00247934      -2.73692475       0.00000000
Si       0.01208718       2.71350023      -2.73644085       0.00000000
