10
Lattice="16.28999089631971 0.0 0.0 0.0 16.28999089631971 0.0 0.0 0.0 34.56409401068381" Properties=species:S:1:pos:R:3:initial_magmoms:R:1 pbc="T T T"
Si       0.31842063       1.53795519      -1.76038486       0.00000000
Si      -1.53130887       1.14697890       1.38816392       0.00000000
Si       1.98307944       0.07522722       1.32328708       0.00000000
Si      -0.62973882      -2.31571472      -0.26023321       0.00000000
Si       1.15010658      -1.66938943       2.74283521       0.00000000
Si      -0.06633288       2.91462309       1.83594201       0.00000000
Si      -0.79638552      -2.82833708       2.03790012       0.00000000
Si       0.65562363       3.49743042      -0.41960834       0.00000000
Si       1.44674748      -3.08328065      -1.13024651       0.00000000
Si      -2.58488091      -2.00354457      -1.50789401       0.00000000
