10
Lattice="16.28999089631971 0.0 0.0 0.0 16.28999089631971 0.0 0.0 0.0 34.56409401068381" Properties=species:S:1:pos:R:3:initial_magmoms:R:1 pbc="T T T"
Si       1.31887098      -1.37121075       1.41916793       0.00000000
Si      -1.39196421       1.36014984       1.40316820       0.00000000
Si      -1.54746855      -1.22590395      -1.38483682       0.00000000
Si       1.72853909       0.78071454      -1.53042086       0.00000000
Si       2.58550549       2.57046426      -0.01359752       0.00000000
Si       2.69977169      -2.66656549      -0.02167170       0.00000000
Si       2.68308422      -0.00742824       2.78523501       0.00000000
Si      -2.73220767      -2.73707512       0.02829418       0.00000000
Si      -0.03639186       2.71360449       2.78471655       0.00000000
Si      -0.03140712      -2.72029805       2.78627193       0.00000000
