10
Lattice="16.28999089631971 0.0 0.0 0.0 16.28999089631971 0.0 0.0 0.0 34.56409401068381" Properties=species:S:1:pos:R:3:initial_magmoms:R:1 pbc="T T T"
Si      -1.35577136      -1.35749457      -1.35771294       0.00000000
Si      -1.35681070       1.35977517       1.35491324       0.00000000
Si       1.35867722       1.35804843      -1.35743642       0.00000000
Si       1.36087637      -1.35826020       1.36023612       0.00000000
Si      -2.70485417      -0.01335780       2.70502207       0.00000000
Si       0.00232133       2.70922248       2.71003387       0.00000000
Si      -2.71324352       0.00027693      -2.71490741       0.00000000
Si      -2.71384625       2.71503801      -0.00048390       0.00000000
Si       0.00180493      -2.71415509      -2.71501110       0.00000000
Si      -2.71438382      -2.71487511       0.00038021       0.00000000
