10
Lattice="16.28999089631971 0.0 0.0 0.0 16.28999089631971 0.0 0.0 0.0 34.56409401068381" Properties=species:S:1:pos:R:3:initial_magmoms:R:1 pbc="T T T"
Si      -1.35436689      -1.36112724      -1.36873889       0.00000000
Si       1.29080331      -1.46378682       1.32788411       0.00000000
Si       1.36627488       1.35426915      -1.36891171       0.00000000
Si      -1.34609157       1.41532407       1.38629746       0.00000000
Si      -2.60017722      -0.02870298       2.77335533       0.00000000
Si      -2.69404020      -2.71857294      -0.02357273       0.00000000
Si       2.71093293       2.71091664      -0.01890657       0.00000000
Si      -2.70501966      -0.00397476      -2.72527664       0.00000000
Si       0.00646713       2.71024875      -2.72472362       0.00000000
Si      -2.71467963       2.72502378       0.01016185       0.00000000
