10
Lattice="16.28999089631971 0.0 0.0 0.0 16.28999089631971 0.0 0.0 0.0 34.56409401068381" Properties=species:S:1:pos:R:3:initial_magmoms:R:1 pbc="T T T"
Si       1.60086717      -1.08361080      -1.31229569       0.00000000
Si       1.69776009       0.84971898       1.39300290       0.00000000
Si      -2.07213687      -1.08325242       0.51559288       0.00000000
Si      -1.15629678       1.79923050      -1.12810353       0.00000000
Si      -0.70485201      -2.96994393      -0.24025515       0.00000000
Si      -2.46801645       0.29105343       2.45743933       0.00000000
Si       0.09943416      -2.33512263      -2.63731098       0.00000000
Si       2.47780674      -2.67993306       0.16988262       0.00000000
Si      -2.53746072       0.54398826      -2.57889762       0.00000000
Si       3.50361640      -0.72312939       0.97100964       0.00000000
