10
Lattice="16.28999089631971 0.0 0.0 0.0 16.28999089631971 0.0 0.0 0.0 34.56409401068381" Properties=species:S:1:pos:R:3:initial_magmoms:R:1 pbc="T T T"
Si       1.35913202       1.34944731       1.35512063       0.00000000
Si      -1.35703555       1.35526284      -1.35539714       0.00000000
Si      -1.34804347      -1.37313297       1.35010883       0.00000000
Si       1.35681070      -1.35977517      -1.35491324       0.00000000
Si      -0.02350357       2.68589520       2.65839508       0.00000000
Si       0.00114511       2.71275741      -2.71231510       0.00000000
Si      -2.71409029      -0.00172674      -2.71245336       0.00000000
Si      -2.71231468       2.71430496       0.00055303       0.00000000
Si       2.71548792      -0.00172674      -2.71234967       0.00000000
Si       2.71649790       2.71147050       0.00338728       0.00000000
