10
Lattice="16.28999089631971 0.0 0.0 0.0 16.28999089631971 0.0 0.0 0.0 34.56409401068381" Properties=species:S:1:pos:R:3:initial_magmoms:R:1 pbc="T T T"
Si       1.46497599       1.76764419       0.44777809       0.00000000
Si       1.53130887      -1.14697890      -1.38816392       0.00000000
Si      -0.19150524      -0.82896552       2.23463905       0.00000000
Si      -2.10888711       0.12740409      -1.17286406       0.00000000
Si       1.84972950       0.39097629      -3.14854878       0.00000000
Si       3.51438831      -1.07175168      -0.06487684       0.00000000
Si       2.18693250       2.35045152      -1.80777226       0.00000000
Si      -0.98675046      -2.99177579       1.92878122       0.00000000
Si      -2.69531082      -2.11722759      -1.43873122       0.00000000
Si       3.42137241       0.84970269       1.29929958       0.00000000
