10
Lattice="16.28999089631971 0.0 0.0 0.0 16.28999089631971 0.0 0.0 0.0 34.56409401068381" Properties=species:S:1:pos:R:3:initial_magmoms:R:1 pbc="T T T"
Si       1.98265168       1.25980344       0.09660670       0.00000000
Si       0.50804535      -1.49239206      -1.79311707       0.00000000
Si      -2.00635785       1.23061176      -0.52869268       0.00000000
Si      -0.05084109      -1.33742529       2.12914938       0.00000000
Si       2.27024675      -2.04377598       2.11608415       0.00000000
Si       3.53387834      -0.17091468       1.25979280       0.00000000
Si      -1.26063423      -3.00369681      -1.92833188       0.00000000
Si      -3.85056504      -0.19476324       0.15667913       0.00000000
Si       3.08551238       1.28879964      -1.98664154       0.00000000
Si       1.71266285       3.20005647       1.46036835       0.00000000
