10
Lattice="16.28999089631971 0.0 0.0 0.0 16.28999089631971 0.0 0.0 0.0 34.56409401068381" Properties=species:S:1:pos:R:3:initial_magmoms:R:1 pbc="T T T"
Si       1.35674383       1.35708732      -1.35709078       0.00000000
Si      -1.35689184       1.35677781       1.35760924       0.00000000
Si      -1.35785295      -1.35847197      -1.35601929       0.00000000
Si       1.35835985      -1.35874890       1.35781663       0.00000000
Si      -2.71427238       2.71406061       0.00000000       0.00000000
Si      -2.71410948       0.00001629      -2.71456177       0.00000000
Si      -0.00182448       2.71665072      -2.71224597       0.00000000
Si      -0.00213399      -2.71189404      -2.71729233       0.00000000
Si      -2.71490769      -0.00122175       2.71487285       0.00000000
Si       2.71518855       2.71459818      -0.00017282       0.00000000
