10
Lattice="16.28999089631971 0.0 0.0 0.0 16.28999089631971 0.0 0.0 0.0 34.56409401068381" Properties=species:S:1:pos:R:3:initial_magmoms:R:1 pbc="T T T"
Si      -1.34327340       1.42993620      -1.34603027       0.00000000
Si       1.91146860       1.07777898       0.93350757       0.00000000
Si      -1.66847067      -0.47886084       1.67241919       0.00000000
Si       0.23939784      -2.03335038      -1.44540209       0.00000000
Si      -2.99493279      -1.71545103       0.04482965       0.00000000
Si      -2.91164202      -0.27917802      -1.86507956       0.00000000
Si       1.80030564       3.31045380       0.17617329       0.00000000
Si      -1.60480935      -3.45872538      -0.76003029       0.00000000
Si       3.95841854      -0.06390567       0.54365894       0.00000000
Si      -0.34340949       2.24554392      -3.28898277       0.00000000
