10
Lattice="16.28999089631971 0.0 0.0 0.0 16.28999089631971 0.0 0.0 0.0 34.56409401068381" Properties=species:S:1:pos:R:3:initial_magmoms:R:1 pbc="T T T"
Si      -1.87576092      -0.87179193      -1.08939172       0.00000000
Si      -0.37434420       2.25854334      -0.53975319       0.00000000
Si       0.26795421       0.19311795       2.37576433       0.00000000
Si       1.70108555      -1.68847479      -0.21001155       0.00000000
Si      -2.87562483      -1.68739965       0.85356078       0.00000000
Si       1.73572461       3.19707540      -0.44656834       0.00000000
Si       3.59784917      -0.36059544      -0.67247939       0.00000000
Si      -1.04969502      -2.61835686      -2.45595307       0.00000000
Si       2.40128025       1.29626046       2.56393136       0.00000000
Si       0.37911717      -2.03955687       3.13309862       0.00000000
