10
Lattice="16.28999089631971 0.0 0.0 0.0 16.28999089631971 0.0 0.0 0.0 34.56409401068381" Properties=species:S:1:pos:R:3:initial_magmoms:R:1 pbc="T T T"
Si      -1.65736089       1.74807990       0.16542603       0.00000000
Si      -0.91694781      -1.73770317       1.41394326       0.00000000
Si       1.85710887       0.97627599       1.35949095       0.00000000
Si      -1.11549033      -0.29429514      -2.62659610       0.00000000
Si      -2.13408774      -0.34430544       2.86568786       0.00000000
Si      -2.77299783       1.26814392      -1.90296182       0.00000000
Si       0.58440375       2.38195638       2.84216353       0.00000000
Si      -3.47236011       0.85344939       1.39894589       0.00000000
Si      -2.48559336      -2.92685688       0.06325233       0.00000000
Si      -0.77831991       3.65311395       1.36477235       0.00000000
