10
Lattice="16.28999089631971 0.0 0.0 0.0 16.28999089631971 0.0 0.0 0.0 34.56409401068381" Properties=species:S:1:pos:R:3:initial_magmoms:R:1 pbc="T T T"
Si       1.35690813      -1.35503478       1.36058176       0.00000000
Si       1.36195803       1.35037871      -1.36446331       0.00000000
Si      -1.35992178       1.35904186       1.35830053       0.00000000
Si      -1.34614044      -1.36663326      -1.37430025       0.00000000
Si       2.71098180      -2.70995553       0.00504636       0.00000000
Si      -2.71608057      -2.71256193      -0.00528831       0.00000000
Si      -0.00146610      -2.71254564       2.71729233       0.00000000
Si       2.71378368       0.00250866       2.71739603       0.00000000
Si       2.71565703       2.71758807       0.00155539       0.00000000
Si      -2.71647153       0.00213399       2.71753428       0.00000000
