10
Lattice="16.28999089631971 0.0 0.0 0.0 16.28999089631971 0.0 0.0 0.0 34.56409401068381" Properties=species:S:1:pos:R:3:initial_magmoms:R:1 pbc="T T T"
Si       0.38683863       0.91271241       2.15241103       0.00000000
Si       1.82897604      -0.89736723      -1.26881404       0.00000000
Si       1.95133023       1.41146334      -0.37661058       0.00000000
Si      -1.69751574      -1.74952971       0.17994077       0.00000000
Si      -0.53173818       1.99868526      -1.37323222       0.00000000
Si      -1.93305285       1.90636983       1.58714952       0.00000000
Si      -3.19725459      -0.63715077      -1.25087526       0.00000000
Si      -2.04302664       0.77559948      -2.80570734       0.00000000
Si       0.55861668      -2.04703398      -2.86391330       0.00000000
Si      -0.70760502      -3.38475249      -1.34800042       0.00000000
