10
Lattice="16.28999089631971 0.0 0.0 0.0 16.28999089631971 0.0 0.0 0.0 34.56409401068381" Properties=species:S:1:pos:R:3:initial_magmoms:R:1 pbc="T T T"
Si       1.21508480       1.41156108       1.41913336       0.00000000
Si      -1.26125325       1.39416336      -1.53623658       0.00000000
Si       1.45174104      -1.30764717      -1.52922007       0.00000000
Si      -1.42037397      -1.58193819       1.37309397       0.00000000
Si      -1.29801978       0.72689238       2.26529742       0.00000000
Si       2.71455650       2.62208727      -0.06605202       0.00000000
Si       2.73262211      -0.02902878       2.61384194       0.00000000
Si      -2.59462233       2.78704178      -0.16580405       0.00000000
Si      -2.69073333      -2.73160494      -0.22200530       0.00000000
Si      -2.62734894       0.04279383      -2.90829362       0.00000000
