10
Lattice="16.28999089631971 0.0 0.0 0.0 16.28999089631971 0.0 0.0 0.0 34.56409401068381" Properties=species:S:1:pos:R:3:initial_magmoms:R:1 pbc="T T T"
Si      -2.07648630       0.76756592       0.87001330       0.00000000
Si       1.56440756       1.71735437      -0.60051690       0.00000000
Si       1.00238301      -1.35005004       1.73079797       0.00000000
Si      -0.70734438      -0.68333292      -2.23380952       0.00000000
Si      -2.51587647      -1.94714370       0.56121751       0.00000000
Si      -0.80137026      -2.82836754       1.90576152       0.00000000
Si      -1.44674748       3.08328065       1.13024651       0.00000000
Si       3.01707809      -2.16832932       0.85888365       0.00000000
Si       3.41556407       0.62967270      -1.62523917       0.00000000
Si      -2.24313300       0.25494357       3.16814663       0.00000000
