10
Lattice="16.28999089631971 0.0 0.0 0.0 16.28999089631971 0.0 0.0 0.0 34.56409401068381" Properties=species:S:1:pos:R:3:initial_magmoms:R:1 pbc="T T T"
Si       2.11006881       0.93853206       0.09318485       0.00000000
Si      -0.99118134       0.08737956      -2.12942589       0.00000000
Si       0.37434420      -2.25854334       0.53975319       0.00000000
Si      -1.52484174       1.21021668       1.40136741       0.00000000
Si      -2.73787659      -1.29973023      -1.45832907       0.00000000
Si      -1.50141672      -3.13033527      -0.54963853       0.00000000
Si       0.64229841      -2.06542539       2.91551752       0.00000000
Si       2.36690183       1.90052172      -2.02386709       0.00000000
Si       1.91356091       2.48784042       1.87168130       0.00000000
Si      -0.30146274       3.21546585       1.80721923       0.00000000
