10
Lattice="16.28999089631971 0.0 0.0 0.0 16.28999089631971 0.0 0.0 0.0 34.56409401068381" Properties=species:S:1:pos:R:3:initial_magmoms:R:1 pbc="T T T"
Si       1.71201873       1.05826356       1.18872899       0.00000000
Si       1.19441375      -1.03935087      -1.72651202       0.00000000
Si      -1.71468770       1.23430959      -1.07815839       0.00000000
Si      -1.66265744      -1.26159534       1.23449187       0.00000000
Si      -3.20370773       0.35880354       0.54583648       0.00000000
Si       2.29308303      -0.98111412       2.24981270       0.00000000
Si       3.12714732       0.32014737      -1.94378204       0.00000000
Si      -1.44950279       0.82233549      -3.39640803       0.00000000
Si       0.71688706       2.47088349       2.78673164       0.00000000
Si      -1.99986044      -3.22107057      -0.10628465       0.00000000
