10
Lattice="16.28999089631971 0.0 0.0 0.0 16.28999089631971 0.0 0.0 0.0 34.56409401068381" Properties=species:S:1:pos:R:3:initial_magmoms:R:1 pbc="T T T"
Si       1.35785784       1.35703845      -1.35715991       0.00000000
Si      -1.35741351      -1.35830907      -1.35705622       0.00000000
Si      -1.35624287       1.35580041       1.36096196       0.00000000
Si       1.35793929      -1.35959598       1.35864617       0.00000000
Si       2.71463565      -0.00003258      -2.71470002       0.00000000
Si      -0.00058481       2.71503801      -2.71504567       0.00000000
Si       0.00016127      -2.71568961      -2.71459633       0.00000000
Si      -2.71473080       2.71567332       0.00034564       0.00000000
Si       2.71558047      -2.71482624      -0.00006913       0.00000000
Si      -2.71577336       0.00043983      -2.71487285       0.00000000
