10
Lattice="16.28999089631971 0.0 0.0 0.0 16.28999089631971 0.0 0.0 0.0 34.56409401068381" Properties=species:S:1:pos:R:3:initial_magmoms:R:1 pbc="T T T"
Si      -1.36997238      -1.35591444       1.34485509       0.00000000
Si       1.35624287      -1.35580041      -1.36096196       0.00000000
Si      -1.35848793       1.35987291      -1.36061632       0.00000000
Si       1.36286312       1.36541151       1.37772556       0.00000000
Si      -0.02581932      -2.74097169       2.65269201       0.00000000
Si      -2.71463043      -2.71256193      -0.00515005       0.00000000
Si       2.71328620       2.71482624      -0.00141713       0.00000000
Si       2.71418215      -2.71539639      -0.00231580       0.00000000
Si      -2.71622685       2.71585251      -0.00134800       0.00000000
Si      -0.00117064      -2.71410948      -2.71801818       0.00000000
