10
Lattice="16.28999089631971 0.0 0.0 0.0 16.28999089631971 0.0 0.0 0.0 34.56409401068381" Properties=species:S:1:pos:R:3:initial_magmoms:R:1 pbc="T T T"
Si      -1.71201873      -1.05826356      -1.18872899       0.00000000
Si      -0.99513166       1.41261993       1.59800265       0.00000000
Si       0.58106430      -2.03937768       1.06108372       0.00000000
Si       2.00534787       0.50238360      -1.22415720       0.00000000
Si       1.41512859      -0.73811619      -3.13251103       0.00000000
Si       2.72815146      -1.46222298       1.73933531       0.00000000
Si      -0.51760498      -2.09761443      -2.91524101       0.00000000
Si       0.84408264       2.34424503       2.73924055       0.00000000
Si      -0.73238700      -1.92572235       3.09891471       0.00000000
Si      -2.92111370       2.35872684       0.56187423       0.00000000
