10
Lattice="16.28999089631971 0.0 0.0 0.0 16.28999089631971 0.0 0.0 0.0 34.56409401068381" Properties=species:S:1:pos:R:3:initial_magmoms:R:1 pbc="T T T"
Si      -1.36864575       1.35691628       1.32688175       0.00000000
Si      -1.36214437      -1.33416535      -1.36994863       0.00000000
Si       1.35184031       1.37965711      -1.36718350       0.00000000
Si       1.26214757      -1.47028557       1.47409031       0.00000000
Si      -2.71366218      -2.69820948       0.00390574       0.00000000
Si       2.71726811      -2.69956155       0.02187908       0.00000000
Si      -0.00640034      -2.68968981      -2.72821459       0.00000000
Si       2.70781991       0.02229287      -2.72883675       0.00000000
Si      -2.71389024       2.72455952      -0.02239755       0.00000000
Si       2.71254401       2.73602767      -0.00615241       0.00000000
