10
Lattice="16.28999089631971 0.0 0.0 0.0 16.28999089631971 0.0 0.0 0.0 34.56409401068381" Properties=species:S:1:pos:R:3:initial_magmoms:R:1 pbc="T T T"
Si      -2.04694994       1.14168465       0.38984863       0.00000000
Si       0.65941268      -1.58987142       1.64131149       0.00000000
Si       0.26998883      -1.94025303      -1.36376166       0.00000000
Si       2.00157836       1.30432401       0.04756022       0.00000000
Si      -0.72498156       1.49276673      -2.95326153       0.00000000
Si       1.82121548      -3.37097115      -0.20057555       0.00000000
Si       2.79182255       1.69393194      -2.12272046       0.00000000
Si      -1.71266285      -3.20005647      -1.46036835       0.00000000
Si      -3.95841854       0.06390567      -0.54365894       0.00000000
Si      -2.15811290       3.37435947      -0.36748565       0.00000000
