10
Lattice="16.28999089631971 0.0 0.0 0.0 16.28999089631971 0.0 0.0 0.0 34.56409401068381" Properties=species:S:1:pos:R:3:initial_magmoms:R:1 pbc="T T T"
Si       1.35641617       1.35587322      -1.35709078       0.00000000
Si      -1.35574403       1.35552446       1.35826596       0.00000000
Si      -1.35824764      -1.35949824      -1.35660688       0.00000000
Si       1.35615553      -1.36091547       1.35999417       0.00000000
Si       0.00640034       2.68968981       2.72821459       0.00000000
Si       2.71422025       2.71198268      -0.00062215       0.00000000
Si      -0.00083079       2.71345203      -2.71421613       0.00000000
Si       2.71391074      -0.00197109      -2.71449264       0.00000000
Si      -2.71701954       2.71273202       0.00117518       0.00000000
Si      -2.71568376      -0.00198738      -2.71431982       0.00000000
