10
Lattice="16.28999089631971 0.0 0.0 0.0 16.28999089631971 0.0 0.0 0.0 34.56409401068381" Properties=species:S:1:pos:R:3:initial_magmoms:R:1 pbc="T T T"
Si      -1.97824783      -0.72780462      -1.10625901       0.00000000
Si      -0.00534312       1.80227673      -1.58234511       0.00000000
Si       1.91537820      -1.46857608       0.10707962       0.00000000
Si      -0.15807816       0.98166798       2.21988018       0.00000000
Si      -0.79206867      -1.58052096      -2.88893772       0.00000000
Si      -2.22138259       1.41025788      -2.18030427       0.00000000
Si       2.90190060      -0.40925367       1.94716932       0.00000000
Si       1.06248267       2.93166243       1.78610056       0.00000000
Si       0.08239482       0.51445449      -3.76043727       0.00000000
Si       0.24040782       3.77967000      -0.26424265       0.00000000
