10
Lattice="10.86 0.0 0.0 0.0 10.86 0.0 0.0 0.0 10.86" Properties=species:S:1:pos:R:3:initial_magmoms:R:1 pbc="T T T"
Si      -1.31868636      -1.17330354       1.43159778       0.00000000
Si      -1.31868636       1.54169646      -1.28340222       0.00000000
Si       1.39631364       1.54169646       1.43159778       0.00000000
Si      -2.54282556      -2.42655840       0.03065778       0.00000000
Si      -1.09280922      -1.43493180      -3.04502454       0.00000000
Si      -2.60880006       0.24229746      -2.43486630       0.00000000
Si       2.76357678      -2.45427312       0.01116408       0.00000000
Si       0.03881364      -2.53080354       2.78909778       0.00000000
Si      -2.67618636       0.18419646       2.78909778       0.00000000
Si       2.71399002       0.05677608      -2.76806196       0.00000000
