10
Lattice="16.28999089631971 0.0 0.0 0.0 16.28999089631971 0.0 0.0 0.0 34.46413024517268" Properties=species:S:1:pos:R:3:initial_magmoms:R:1 pbc="T T T"
Si      -1.35476352       1.35830907       1.36219551       0.00000000
Si       1.36065320      -1.35607734       1.36019659       0.00000000
Si      -1.36532259      -1.33672482      -1.37506098       0.00000000
Si       1.36495376       1.36319607      -1.37913809       0.00000000
Si      -2.71310832      -2.71412740       0.00000000       0.00000000
Si      -2.71219608       0.00024435       2.71756712       0.00000000
Si       2.71866905       2.71375110       0.00206785       0.00000000
Si      -2.71491651       2.71754667       0.00465266       0.00000000
Si       0.00270740      -2.71482624       2.71798069       0.00000000
Si       0.00239789       2.71507059       2.71804961       0.00000000
