10
Lattice="16.28999089631971 0.0 0.0 0.0 16.28999089631971 0.0 0.0 0.0 34.46413024517268" Properties=species:S:1:pos:R:3:initial_magmoms:R:1 pbc="T T T"
Si      -1.12685912       2.03616855       0.36949015       0.00000000
Si       1.58234381      -0.33821298       1.75126129       0.00000000
Si      -0.77014070      -0.77405193      -2.22597049       0.00000000
Si       0.97850609       2.42418006      -0.37769261       0.00000000
Si       1.00597103       0.17461251      -3.38689536       0.00000000
Si       0.00691348      -1.52239824       3.33815414       0.00000000
Si       0.72983924       2.42115012      -2.69475185       0.00000000
Si       3.38874191      -1.42560306       0.40939963       0.00000000
Si      -0.91763362      -3.38597424       1.88036400       0.00000000
Si      -2.49423588       0.64630575      -3.04614832       0.00000000
