10
Lattice="16.28999089631971 0.0 0.0 0.0 16.28999089631971 0.0 0.0 0.0 34.46413024517268" Properties=species:S:1:pos:R:3:initial_magmoms:R:1 pbc="T T T"
Si       1.35482301      -1.35827267       1.36036891       0.00000000
Si      -1.35920502       1.35969209       1.36029998       0.00000000
Si       1.37222073       1.34750717      -1.36676546       0.00000000
Si      -1.36052451      -1.37076345      -1.38125418       0.00000000
Si       2.71267596      -2.71465587       0.00168874       0.00000000
Si       2.71365336       2.71511783       0.00048250       0.00000000
Si      -2.71578735      -2.71467216      -0.00017232       0.00000000
Si       2.71265967       0.00069558       2.71780837       0.00000000
Si       0.01482390       2.66694830      -2.76302878       0.00000000
Si      -0.00221544      -2.71397169       2.71784283       0.00000000
