10
Lattice="16.28999089631971 0.0 0.0 0.0 16.28999089631971 0.0 0.0 0.0 34.46413024517268" Properties=species:S:1:pos:R:3:initial_magmoms:R:1 pbc="T T T"
Si       1.34488611       0.49515084      -1.88208720       0.00000000
Si       1.31509170      -1.38460113       1.40827408       0.00000000
Si      -2.00720493      -0.78390738      -1.22626890       0.00000000
Si      -1.58891031       1.43247744       1.29854023       0.00000000
Si      -3.37347981       1.42399035      -0.42466725       0.00000000
Si      -0.18191043       1.51949862      -3.38455180       0.00000000
Si       1.88398737      -1.65390741      -2.75651161       0.00000000
Si       2.43418212       0.22056660       2.81416810       0.00000000
Si      -2.37151449       1.50012981      -2.49234390       0.00000000
Si      -0.26971353      -2.40355366       2.88378913       0.00000000
