10
Lattice="16.28999089631971 0.0 0.0 0.0 16.28999089631971 0.0 0.0 0.0 34.46413024517268" Properties=species:S:1:pos:R:3:initial_magmoms:R:1 pbc="T T T"
Si      -2.13120441       0.92237238      -0.13637464       0.00000000
Si       1.61096697       1.75687650      -0.17745591       0.00000000
Si       0.00211770      -1.59902640       1.83173508       0.00000000
Si      -0.23268636      -0.93753837      -2.29420950       0.00000000
Si      -3.37382190      -1.16291052      -0.02443508       0.00000000
Si       1.76647131      -0.08237853      -3.23180669       0.00000000
Si       3.32524512       0.76483179      -1.49739837       0.00000000
Si       2.41429203       2.06250948       1.98134396       0.00000000
Si      -2.26548288       2.23666587      -2.09721243       0.00000000
Si      -2.53329048       2.59669116       1.41844100       0.00000000
