10
Lattice="16.28999089631971 0.0 0.0 0.0 16.28999089631971 0.0 0.0 0.0 34.46413024517268" Properties=species:S:1:pos:R:3:initial_magmoms:R:1 pbc="T T T"
Si       1.99915767       0.85515984      -0.93759719       0.00000000
Si      -1.69095087       1.30548060      -1.11974022       0.00000000
Si      -0.72482355      -2.29921947      -0.24059423       0.00000000
Si       0.23268636       0.93753837       2.29420950       0.00000000
Si      -1.89851805       1.85991075       2.15783486       0.00000000
Si       1.06966656       2.89745343      -1.88994503       0.00000000
Si      -2.10833325      -2.36271789       1.84172969       0.00000000
Si       2.49901632      -0.75600261      -2.65432540       0.00000000
Si      -2.03279652       3.17420424       0.19699708       0.00000000
Si       1.26654750      -3.59913866      -0.04711249       0.00000000
