10
Lattice="16.28999089631971 0.0 0.0 0.0 16.28999089631971 0.0 0.0 0.0 34.46413024517268" Properties=species:S:1:pos:R:3:initial_magmoms:R:1 pbc="T T T"
Si      -2.18960406      -0.01936881       0.89220790       0.00000000
Si       1.52679654      -1.02434778       1.50246460       0.00000000
Si       0.03692943       2.34339795      -0.38479223       0.00000000
Si      -0.17787051      -1.81278378      -1.61733361       0.00000000
Si      -1.80646326       2.32873695      -1.86047818       0.00000000
Si      -1.38264633      -3.27969828      -0.05852013       0.00000000
Si      -1.82529450      -2.30340600       2.15828290       0.00000000
Si       3.33845631       0.51818490       1.51073599       0.00000000
Si       2.10843099      -2.58748731      -1.61543808       0.00000000
Si       0.18191043      -1.51949862       3.38455180       0.00000000
