10
Lattice="16.28999089631971 0.0 0.0 0.0 16.28999089631971 0.0 0.0 0.0 34.46413024517268" Properties=species:S:1:pos:R:3:initial_magmoms:R:1 pbc="T T T"
Si      -1.35726651      -1.35742941       1.35657785       0.00000000
Si       1.35786924       1.35744570       1.35688803       0.00000000
Si      -1.35957969       1.35726651      -1.35785303       0.00000000
Si       1.36122498      -1.35953082      -1.36302265       0.00000000
Si      -2.71427238       2.71331127      -0.00079268       0.00000000
Si       2.71513575       2.71252935      -0.00096500       0.00000000
Si       0.00078192       2.71458189       2.71325910       0.00000000
Si      -2.71407690      -0.00043983       2.71418963       0.00000000
Si       0.00162900      -2.71523349       2.71374160       0.00000000
Si       2.71603170      -0.00117288       2.71346588       0.00000000
