10
Lattice="16.28999089631971 0.0 0.0 0.0 16.28999089631971 0.0 0.0 0.0 34.46413024517268" Properties=species:S:1:pos:R:3:initial_magmoms:R:1 pbc="T T T"
Si       1.36925595       1.34679204       1.38422844       0.00000000
Si      -1.34837217      -1.36762695       1.38626182       0.00000000
Si       1.34493498      -1.39750281      -1.40110209       0.00000000
Si      -1.36480878       1.34855136      -1.56118462       0.00000000
Si      -2.70394452       2.69068446       0.00128551       0.00000000
Si      -2.70612738      -2.71205694       0.02409733       0.00000000
Si       2.72362284       2.69511085       0.01429573       0.00000000
Si       0.01140300       2.70317524       2.74290861       0.00000000
Si      -2.70306486      -0.01158219       2.74332218       0.00000000
Si       2.72629440      -2.72121192       0.01032891       0.00000000
