10
Lattice="16.28999089631971 0.0 0.0 0.0 16.28999089631971 0.0 0.0 0.0 34.46413024517268" Properties=species:S:1:pos:R:3:initial_magmoms:R:1 pbc="T T T"
Si      -1.35599589      -1.35583299       1.35723267       0.00000000
Si       1.35708732      -1.35713619      -1.35637107       0.00000000
Si       1.35744570       1.35565380       1.35788749       0.00000000
Si      -1.35762489       1.35778779      -1.35699142       0.00000000
Si      -0.00078192      -2.71458189      -2.71325910       0.00000000
Si      -0.00058644       2.71348681      -2.71446534       0.00000000
Si       2.71435383      -0.00205254      -2.71422409       0.00000000
Si      -2.71505430      -0.00127062      -2.71405177       0.00000000
Si       2.71472850       2.71495127       0.00055143       0.00000000
Si      -2.71485882      -2.71502172       0.00093053       0.00000000
