10
Lattice="16.28999089631971 0.0 0.0 0.0 16.28999089631971 0.0 0.0 0.0 34.46413024517268" Properties=species:S:1:pos:R:3:initial_magmoms:R:1 pbc="T T T"
Si      -2.08472904       0.48097854       0.97885077       0.00000000
Si       0.75668679      -2.09562705       0.76658608       0.00000000
Si      -0.34339320      -0.74070630      -2.23851544       0.00000000
Si       1.80266769       1.60806735       0.06579206       0.00000000
Si       1.10317509      -2.53560366      -1.59376013       0.00000000
Si      -1.29569031       1.90061946       2.67166087       0.00000000
Si       3.73819662       0.25327692      -0.35977126       0.00000000
Si      -0.08343738       1.39598784      -3.50541757       0.00000000
Si      -3.44043171       1.25863056      -0.96878724       0.00000000
Si      -1.06305282      -3.58529868       0.89858377       0.00000000
