10
Lattice="16.28999089631971 0.0 0.0 0.0 16.28999089631971 0.0 0.0 0.0 34.46413024517268" Properties=species:S:1:pos:R:3:initial_magmoms:R:1 pbc="T T T"
Si       1.45709163      -0.83802276      -1.60582258       0.00000000
Si      -1.97389188      -1.29925782      -0.12252005       0.00000000
Si       0.20997810       2.31767604      -0.51017281       0.00000000
Si       1.22437269      -0.58557663       1.98730625       0.00000000
Si       2.94405912       1.01489958      -1.18591138       0.00000000
Si       2.09567592      -2.95370280      -0.86515355       0.00000000
Si      -1.73683980       2.84004747      -1.76870015       0.00000000
Si      -1.42532613      -3.48032592       0.59540265       0.00000000
Si       2.54049066      -2.51434521       1.43736182       0.00000000
Si       0.31553730      -1.15619904      -3.67377494       0.00000000
