10
Lattice="16.28999089631971 0.0 0.0 0.0 16.28999089631971 0.0 0.0 0.0 34.46413024517268" Properties=species:S:1:pos:R:3:initial_magmoms:R:1 pbc="T T T"
Si       1.23846354      -1.29865020      -1.50029336       0.00000000
Si      -1.35932557      -1.37381715       1.35915719       0.00000000
Si       1.47092184       1.34343630       1.31995422       0.00000000
Si      -1.00181382       1.24708095      -1.78479491       0.00000000
Si       1.12682817       2.49579090      -2.03714141       0.00000000
Si      -2.39269149       2.84092713      -0.50134998       0.00000000
Si      -2.62908287       0.05553261       2.70802541       0.00000000
Si       2.49310305       0.28789317      -2.83874307       0.00000000
Si       0.09557343      -2.69427545       2.70172881       0.00000000
Si       2.91139767       2.50427799      -0.31393394       0.00000000
