10
Lattice="16.28999089631971 0.0 0.0 0.0 16.28999089631971 0.0 0.0 0.0 34.46413024517268" Properties=species:S:1:pos:R:3:initial_magmoms:R:1 pbc="T T T"
Si      -1.23846354       1.29865020       1.50029336       0.00000000
Si       1.63934415      -1.26248086       1.20607291       0.00000000
Si      -1.45653777      -1.61653393      -1.05439619       0.00000000
Si       1.25463951       1.58654337      -1.33844971       0.00000000
Si      -2.24027736       2.54573115      -0.28450155       0.00000000
Si       0.19624563      -2.73775834       2.63955204       0.00000000
Si      -0.11163537       3.79444110      -0.53684806       0.00000000
Si      -2.59778911      -0.07516695       2.85945055       0.00000000
Si       3.35588661      -1.84904110      -0.50283194       0.00000000
Si       0.23245830       2.64208650       2.82024758       0.00000000
