10
Lattice="16.28999089631971 0.0 0.0 0.0 16.28999089631971 0.0 0.0 0.0 34.46413024517268" Properties=species:S:1:pos:R:3:initial_magmoms:R:1 pbc="T T T"
Si      -1.37138994       1.23674657       1.40224285       0.00000000
Si       1.33582887       1.37244227      -1.34768610       0.00000000
Si      -1.37709144      -1.34350257      -1.34589397       0.00000000
Si       1.26778554      -1.43615639       1.38466613       0.00000000
Si      -2.26730736      -0.76831296       2.68472278       0.00000000
Si       0.25042617       2.50049219       2.66435447       0.00000000
Si      -0.40825998      -2.45962451       2.76774692       0.00000000
Si       2.69325828       0.01556184      -2.70726234       0.00000000
Si       2.69055414      -2.71813052       0.01850725       0.00000000
Si      -0.02155167      -2.70188939      -2.70757251       0.00000000
