10
Lattice="16.28999089631971 0.0 0.0 0.0 16.28999089631971 0.0 0.0 0.0 34.46413024517268" Properties=species:S:1:pos:R:3:initial_magmoms:R:1 pbc="T T T"
Si       1.35694071       1.35738543      -1.35730160       0.00000000
Si      -1.35834165      -1.35777909      -1.35740499       0.00000000
Si       1.35892809      -1.35829878       1.36109266       0.00000000
Si      -1.36013355       1.36064343       1.36388425       0.00000000
Si       2.71450044       2.71417953      -0.00010339       0.00000000
Si       2.71407690      -0.00042680      -2.71491338       0.00000000
Si      -0.00027693       2.71437501      -2.71501677       0.00000000
Si      -0.00074934      -2.71497515      -2.71453427       0.00000000
Si      -2.71581993      -0.00027530      -2.71498231       0.00000000
Si       2.71446786      -2.71668560      -0.00058589       0.00000000
