10
Lattice="16.28999089631971 0.0 0.0 0.0 16.28999089631971 0.0 0.0 0.0 34.46413024517268" Properties=species:S:1:pos:R:3:initial_magmoms:R:1 pbc="T T T"
Si      -0.48801582       0.24300282       2.25795322       0.00000000
Si      -1.95510951      -0.75665651      -1.23671154       0.00000000
Si       1.85904738      -1.69131155       0.08302414       0.00000000
Si       0.89591742       2.00505954      -1.28247993       0.00000000
Si       1.65275082       1.41498687       2.53004768       0.00000000
Si      -0.48172788      -1.95880964      -2.65966735       0.00000000
Si       2.26730736       0.76831296      -2.68472278       0.00000000
Si       0.88444926      -3.39115676      -1.24167438       0.00000000
Si      -2.16231831       1.92062847       2.39705053       0.00000000
Si       3.53509290      -0.66784343      -1.30005665       0.00000000
