10
Lattice="16.28999089631971 0.0 0.0 0.0 16.28999089631971 0.0 0.0 0.0 34.46413024517268" Properties=species:S:1:pos:R:3:initial_magmoms:R:1 pbc="T T T"
Si       0.03416013      -1.08415000       2.09862546       0.00000000
Si       0.59223924       2.20657824       0.72602177       0.00000000
Si      -2.23601427      -0.19927557      -0.84440613       0.00000000
Si       1.77859107      -1.05660198      -1.27048641       0.00000000
Si       2.83085991       1.92679749       0.19872029       0.00000000
Si      -0.91303821       0.64022958       3.46195828       0.00000000
Si      -2.87756334      -2.32514405       0.20478598       0.00000000
Si       3.35557710       0.69082632      -1.72510300       0.00000000
Si      -1.34967537      -3.01546538       1.97076346       0.00000000
Si      -2.15128998      -0.69688620      -3.16336089       0.00000000
