10
Lattice="16.28999089631971 0.0 0.0 0.0 16.28999089631971 0.0 0.0 0.0 34.46413024517268" Properties=species:S:1:pos:R:3:initial_magmoms:R:1 pbc="T T T"
Si      -1.34429967      -1.36306575      -1.37463707       0.00000000
Si       1.36969578       1.35490446      -1.37387886       0.00000000
Si       1.41874497      -1.31378850       1.40710230       0.00000000
Si      -1.40970402       1.37951865       1.40737801       0.00000000
Si      -2.70197343      -2.70694188       0.01561226       0.00000000
Si      -2.70932022       2.71575477      -0.02798489       0.00000000
Si       2.74610304       2.68993512      -0.02005814       0.00000000
Si      -2.70353727      -0.00250866      -2.73428223       0.00000000
Si       2.72588715      -2.71847520      -0.00434248       0.00000000
Si       0.01208718       2.71296918      -2.73483366       0.00000000
