10
Lattice="16.28999089631971 0.0 0.0 0.0 16.28999089631971 0.0 0.0 0.0 34.46413024517268" Properties=species:S:1:pos:R:3:initial_magmoms:R:1 pbc="T T T"
Si       0.35184771       0.10278990      -2.31530156       0.00000000
Si      -0.10689498       2.17287423       0.95317498       0.00000000
Si       1.89486909      -1.35115776       0.52885237       0.00000000
Si      -2.12118606      -1.10283300       0.47105600       0.00000000
Si      -2.44437966       2.35326969       0.72967497       0.00000000
Si       0.88528005      -3.45240486       0.72274768       0.00000000
Si      -1.35334062      -3.17262411       1.25004917       0.00000000
Si      -1.00804149       1.86465114      -3.02943321       0.00000000
Si      -2.88919440       1.91391210      -1.57284039       0.00000000
Si      -3.28243500       0.48109257       1.87588366       0.00000000
