10
Lattice="16.28999089631971 0.0 0.0 0.0 16.28999089631971 0.0 0.0 0.0 34.46413024517268" Properties=species:S:1:pos:R:3:initial_magmoms:R:1 pbc="T T T"
Si       1.70831601      -1.65405402       0.23763690       0.00000000
Si      -1.90640241      -0.88809822       1.19828199       0.00000000
Si       0.76970250       1.91687688       1.29988575       0.00000000
Si       0.78079599       0.21155823      -2.32601991       0.00000000
Si       2.12880978       0.58617936       2.70858373       0.00000000
Si      -0.60330015      -2.15664939       2.71122713       0.00000000
Si       3.56920416      -0.56193984       1.17604572       0.00000000
Si      -1.18403865       0.92901870      -3.48970192       0.00000000
Si       0.76862736      -3.53863109       1.33767913       0.00000000
Si       2.08037961       2.42576019      -2.22945137       0.00000000
