10
Lattice="16.28999089631971 0.0 0.0 0.0 16.28999089631971 0.0 0.0 0.0 34.46413024517268" Properties=species:S:1:pos:R:3:initial_magmoms:R:1 pbc="T T T"
Si       1.35154872       1.35764118       1.34813414       0.00000000
Si      -1.35783666       1.35506736      -1.35985195       0.00000000
Si       1.35733167      -1.36062225      -1.35816320       0.00000000
Si      -1.35185823      -1.37086866       1.38394239       0.00000000
Si      -2.70977634       2.70506853      -0.00124071       0.00000000
Si       2.71394658       2.71008585       0.00000000       0.00000000
Si       0.00048870       2.71098180      -2.71636087       0.00000000
Si      -2.71391400      -0.00307881      -2.71608516       0.00000000
Si       2.71487511      -0.00278559      -2.71611962       0.00000000
Si       0.00004887      -2.71800279      -2.71553373       0.00000000
