10
Lattice="16.28999089631971 0.0 0.0 0.0 16.28999089631971 0.0 0.0 0.0 34.46413024517268" Properties=species:S:1:pos:R:3:initial_magmoms:R:1 pbc="T T T"
Si      -1.36239786      -1.35244467       1.34813414       0.00000000
Si       1.35900954      -1.35523026      -1.35871463       0.00000000
Si      -1.35832536       1.35814617      -1.35874909       0.00000000
Si       1.37259540       1.36736631       1.35375179       0.00000000
Si      -0.00247608       2.61511515       2.79142379       0.00000000
Si      -2.71394658      -2.71008585       0.00000000       0.00000000
Si      -2.70865233       2.71831230      -0.00203338       0.00000000
Si       2.77265574       0.00118917       2.65494576       0.00000000
Si       0.00092853      -2.71287144      -2.71611962       0.00000000
Si      -2.71345788       0.00089595      -2.71636087       0.00000000
