10
Lattice="16.28999089631971 0.0 0.0 0.0 16.28999089631971 0.0 0.0 0.0 34.46413024517268" Properties=species:S:1:pos:R:3:initial_magmoms:R:1 pbc="T T T"
Si       1.60265907       1.04249484      -1.34448094       0.00000000
Si      -1.23277833      -1.64737512      -1.21592966       0.00000000
Si      -1.84305060       1.68311538       0.04359715       0.00000000
Si       0.95346999      -0.01334151       2.41018137       0.00000000
Si       0.20259873       2.40867198      -2.64567490       0.00000000
Si      -2.25551340       1.61562591       2.35173017       0.00000000
Si       2.03968719       2.25132687       2.02597503       0.00000000
Si      -2.53239453      -0.31113900      -2.65129256       0.00000000
Si      -1.13352336      -0.24764058       3.54360385       0.00000000
Si       1.76101416      -2.25684918       2.42541452       0.00000000
