10
Lattice="16.28999089631971 0.0 0.0 0.0 16.28999089631971 0.0 0.0 0.0 34.46413024517268" Properties=species:S:1:pos:R:3:initial_magmoms:R:1 pbc="T T T"
Si      -1.33431390      -1.33687143       1.37093217       0.00000000
Si      -1.45608165       1.22098437      -1.41583207       0.00000000
Si       1.37425698       1.38308616       1.36562469       0.00000000
Si       1.26421803      -1.49410251      -1.37499205       0.00000000
Si       0.33041007       2.27647863      -2.64955660       0.00000000
Si       2.16116172       0.27585486      -2.77415522       0.00000000
Si      -2.69767287      -2.68931610      -0.00706860       0.00000000
Si       0.01594791      -2.69289990       2.72644164       0.00000000
Si      -2.69762400       0.01953171       2.72575235       0.00000000
Si      -2.70034443       2.72700667      -0.00310177       0.00000000
