10
Lattice="16.28999089631971 0.0 0.0 0.0 16.28999089631971 0.0 0.0 0.0 34.46413024517268" Properties=species:S:1:pos:R:3:initial_magmoms:R:1 pbc="T T T"
Si      -1.35716141      -1.35676152      -1.35585411       0.00000000
Si      -1.35713686       1.35731538       1.35750838       0.00000000
Si       1.35765258       1.35659862      -1.35816320       0.00000000
Si       1.35765258      -1.35793440       1.35750838       0.00000000
Si       0.00035838      -2.71347417       2.71401731       0.00000000
Si      -2.71470799       2.71464705      -0.00006893       0.00000000
Si      -2.71459396      -2.71482624      -0.00048250       0.00000000
Si      -2.71524556      -0.00190593       2.71439642       0.00000000
Si       2.71482135       2.71538010       0.00000000       0.00000000
Si       2.71662954       0.00065160       2.71398285       0.00000000
