10
Lattice="16.28999089631971 0.0 0.0 0.0 16.28999089631971 0.0 0.0 0.0 34.46413024517268" Properties=species:S:1:pos:R:3:initial_magmoms:R:1 pbc="T T T"
Si       1.33999911       1.32914997       1.37546421       0.00000000
Si       1.35032697      -1.36016613      -1.35671571       0.00000000
Si      -1.36260963       1.35399222      -1.35664678       0.00000000
Si      -1.36311462      -1.36213722       1.38090954       0.00000000
Si      -0.13338252       2.53130310       2.79842001       0.00000000
Si       2.71005327      -0.00180819      -2.71391392       0.00000000
Si       2.71194291       2.71277000       0.00451480       0.00000000
Si       2.70865233      -2.71831230       0.00203338       0.00000000
Si      -0.00532683       2.71328969      -2.71398285       0.00000000
Si      -0.00480555      -2.71741635      -2.71432749       0.00000000
