10
Lattice="16.28999089631971 0.0 0.0 0.0 16.28999089631971 0.0 0.0 0.0 34.46413024517268" Properties=species:S:1:pos:R:3:initial_magmoms:R:1 pbc="T T T"
Si       1.61987760      -0.15131781      -1.63728835       0.00000000
Si      -1.48696749      -1.85292234      -0.41991120       0.00000000
Si       1.38763107       0.07972326       1.99547426       0.00000000
Si      -1.01307510       2.14231419      -0.94373181       0.00000000
Si      -2.73408102       1.30277646       0.67573858       0.00000000
Si       2.40373611      -2.15374977      -0.68983442       0.00000000
Si      -2.94405912      -1.01489958       1.18591138       0.00000000
Si       1.17758781       3.19663461      -0.97616257       0.00000000
Si       0.35298801       0.17780535      -3.61422089       0.00000000
Si       2.83618674      -1.84055823       1.67368249       0.00000000
