10
Lattice="16.28999089631971 0.0 0.0 0.0 16.28999089631971 0.0 0.0 0.0 34.46413024517268" Properties=species:S:1:pos:R:3:initial_magmoms:R:1 pbc="T T T"
Si       1.86088815       1.09211418       0.93840882       0.00000000
Si      -0.93968865      -1.88457707       1.10004223       0.00000000
Si      -1.70831601       1.65405402      -0.23763690       0.00000000
Si      -0.92752002       1.86561225      -2.56365681       0.00000000
Si       0.42049377       2.24023338       2.47094683       0.00000000
Si      -2.31161616      -0.50259537       2.47359023       0.00000000
Si       2.47779045      -2.79198220      -0.17978706       0.00000000
Si      -3.61471842       0.76595580       0.96064509       0.00000000
Si      -0.93861351       3.57093090       1.06224885       0.00000000
Si       3.11169951      -0.47087874       2.46697656       0.00000000
