10
Lattice="16.28999089631971 0.0 0.0 0.0 16.28999089631971 0.0 0.0 0.0 34.46413024517268" Properties=species:S:1:pos:R:3:initial_magmoms:R:1 pbc="T T T"
Si      -1.33582887      -1.37244227       1.34768610       0.00000000
Si      -1.35734796       1.35653346      -1.35940391       0.00000000
Si       1.35742941      -1.35688044      -1.35957623       0.00000000
Si       1.35659862       1.35628911       1.37108726       0.00000000
Si       2.65468356      -0.13393638       2.73328277       0.00000000
Si      -2.71358820       2.71169856       0.00079268       0.00000000
Si      -2.71292031      -2.71594484       0.00179214       0.00000000
Si       2.71652879       2.71363707      -0.00203338       0.00000000
Si       0.00011403       2.71427238      -2.71673998       0.00000000
Si      -2.71490769      -0.00026064      -2.71660212       0.00000000
