10
Lattice="16.28999089631971 0.0 0.0 0.0 16.28999089631971 0.0 0.0 0.0 34.46413024517268" Properties=species:S:1:pos:R:3:initial_magmoms:R:1 pbc="T T T"
Si       2.04085422      -0.78482827       0.65736919       0.00000000
Si      -1.03737978      -1.71905977      -1.22623444       0.00000000
Si       0.37537047       1.53252915      -1.79578897       0.00000000
Si       1.10130174       0.25279653       2.52613776       0.00000000
Si       0.67347747      -2.17469107      -2.75826928       0.00000000
Si       1.58346945      -0.03885686      -3.23328865       0.00000000
Si      -1.71668907       2.78438307      -1.65093615       0.00000000
Si      -2.65087170      -0.56528794      -2.60276703       0.00000000
Si      -3.45600495       1.15744376      -1.19869758       0.00000000
Si      -1.54105029      -2.62263349       2.40856155       0.00000000
