10
Lattice="16.28999089631971 0.0 0.0 0.0 16.28999089631971 0.0 0.0 0.0 34.46413024517268" Properties=species:S:1:pos:R:3:initial_magmoms:R:1 pbc="T T T"
Si      -0.67411278       1.53601668      -1.66510092       0.00000000
Si       2.37118869      -0.24492015      -0.30383594       0.00000000
Si      -0.47426706       1.18436445       2.11889038       0.00000000
Si      -1.29958362      -2.21420196      -0.09656855       0.00000000
Si      -1.31067711      -0.50888331       3.52933711       0.00000000
Si      -3.26441826      -1.49674149      -1.26025055       0.00000000
Si      -0.95918778       0.42691203      -3.71719977       0.00000000
Si       2.97602729      -1.76529843       1.72468943       0.00000000
Si       2.53346967      -1.58873112      -2.47335415       0.00000000
Si      -2.85118983       2.34292554      -1.22320159       0.00000000
