10
Lattice="16.28999089631971 0.0 0.0 0.0 16.28999089631971 0.0 0.0 0.0 34.46413024517268" Properties=species:S:1:pos:R:3:initial_magmoms:R:1 pbc="T T T"
Si       1.01520909      -2.08567386       0.25779184       0.00000000
Si       0.65945178       1.21901328      -1.89149592       0.00000000
Si      -2.37345300      -0.28391841      -0.38193170       0.00000000
Si       1.03314438       0.67808754       2.12271590       0.00000000
Si       0.12263112      -2.80611540       2.30027519       0.00000000
Si      -0.77040297       1.64053332       3.23959559       0.00000000
Si       2.99161682       1.48366062      -1.65066044       0.00000000
Si      -0.62688807       3.26086704      -1.96349153       0.00000000
Si       3.32924336      -1.80229302       0.75286935       0.00000000
Si       1.50840580      -1.26837198       3.43762659       0.00000000
