10
Lattice="16.28999089631971 0.0 0.0 0.0 16.28999089631971 0.0 0.0 0.0 34.46413024517268" Properties=species:S:1:pos:R:3:initial_magmoms:R:1 pbc="T T T"
Si      -1.59766523       0.74054340      -1.54837084       0.00000000
Si      -0.76925778      -0.32166234       2.20463718       0.00000000
Si       1.03280229      -2.13734574      -0.42804474       0.00000000
Si       1.24261749       2.08528290      -0.11193956       0.00000000
Si       1.42503291      -0.30011067       3.19944486       0.00000000
Si      -2.35576925       1.43071812       2.26229570       0.00000000
Si       3.37382190       1.16291052       0.02443508       0.00000000
Si      -0.80003122      -3.65603638      -0.71223611       0.00000000
Si       3.37593960      -0.43611588       1.85617016       0.00000000
Si      -3.44359916      -0.67179960      -1.65875952       0.00000000
