10
Lattice="16.28999089631971 0.0 0.0 0.0 16.28999089631971 0.0 0.0 0.0 34.46413024517268" Properties=species:S:1:pos:R:3:initial_magmoms:R:1 pbc="T T T"
Si      -1.14595263       0.09989028      -2.07446609       0.00000000
Si       2.25240201      -0.55322469      -0.56534991       0.00000000
Si      -0.04632876       2.13027588       1.08265679       0.00000000
Si      -0.36241992      -1.78263099       1.62756946       0.00000000
Si       0.83469960       1.47224133       3.21905496       0.00000000
Si       2.11545198      -2.89901727      -0.59967620       0.00000000
Si      -0.07734492      -0.67352634       3.67966831       0.00000000
Si      -0.24368211       1.96897230      -3.24755681       0.00000000
Si      -2.28437928       2.85149934       1.08668910       0.00000000
Si       3.63817669       0.98451873       0.57200149       0.00000000
