10
Lattice="16.28999089631971 0.0 0.0 0.0 16.28999089631971 0.0 0.0 0.0 34.46413024517268" Properties=species:S:1:pos:R:3:initial_magmoms:R:1 pbc="T T T"
Si      -1.35685926       1.35744570       1.35709482       0.00000000
Si       1.35778779      -1.35751086       1.35685357       0.00000000
Si       1.35778779       1.35690813      -1.35788749       0.00000000
Si      -1.35904212      -1.35689184      -1.35706035       0.00000000
Si      -2.70930393      -0.00086337      -2.71256982       0.00000000
Si       2.71353933       0.00096111       2.71384499       0.00000000
Si       0.00057015       2.71363707       2.71384499       0.00000000
Si       0.00074934      -2.71428867       2.71432749       0.00000000
Si      -2.71412577      -2.71508688       0.00006893       0.00000000
Si      -2.71464705       2.71534752      -0.00010339       0.00000000
