10
Lattice="16.28999089631971 0.0 0.0 0.0 16.28999089631971 0.0 0.0 0.0 34.46413024517268" Properties=species:S:1:pos:R:3:initial_magmoms:R:1 pbc="T T T"
Si      -1.80354735       0.96244578       1.11687969       0.00000000
Si       0.47526142      -1.94645952       1.31491070       0.00000000
Si       1.99343078       1.31390253       0.41877388       0.00000000
Si      -1.03314438      -0.67808754      -2.12271590       0.00000000
Si      -0.01793529      -2.76376140      -1.86492406       0.00000000
Si      -0.91051326      -3.48420294       0.17755930       0.00000000
Si       2.29609898      -2.48038056      -1.36984655       0.00000000
Si       2.77631189      -2.22275421       0.90802695       0.00000000
Si      -0.88824483       1.85018562       3.09057261       0.00000000
Si       1.62002977       3.30061464      -0.72243750       0.00000000
