10
Lattice="16.28999089631971 0.0 0.0 0.0 16.28999089631971 0.0 0.0 0.0 34.46413024517268" Properties=species:S:1:pos:R:3:initial_magmoms:R:1 pbc="T T T"
Si       1.00196532       0.07613946      -2.06767665       0.00000000
Si      -2.12864199      -1.24870995       0.25234650       0.00000000
Si       1.78456950       0.00848709       1.72320748       0.00000000
Si       1.36627488      -2.20789773      -0.80160165       0.00000000
Si      -1.12682817      -2.49579090       2.03714141       0.00000000
Si       0.34409367      -1.15235460       3.35709563       0.00000000
Si       3.37347981      -1.42399035       0.42466725       0.00000000
Si       0.11163537      -3.79444110       0.53684806       0.00000000
Si      -3.51951966       0.34513623       1.53579143       0.00000000
Si      -0.48224916      -0.26181288      -3.82400417       0.00000000
