10
Lattice="16.28999089631971 0.0 0.0 0.0 16.28999089631971 0.0 0.0 0.0 34.46413024517268" Properties=species:S:1:pos:R:3:initial_magmoms:R:1 pbc="T T T"
Si      -1.35791488       1.35589815       1.36133391       0.00000000
Si       1.35805006      -1.36001952       1.36088587       0.00000000
Si       1.35515044       1.36902789      -1.35754630       0.00000000
Si      -1.37526826      -1.36334268      -1.38171600       0.00000000
Si       2.69231509       0.00861741      -2.71457908       0.00000000
Si      -2.71277926       2.71290402       0.00041357       0.00000000
Si       2.71290565       2.71345788       0.00461820       0.00000000
Si      -2.71691692      -2.71414206       0.00565212       0.00000000
Si       0.00079332       2.71311579       2.71898015       0.00000000
Si      -2.71431052      -0.00197109       2.71898015       0.00000000
