10
Lattice="16.28999089631971 0.0 0.0 0.0 16.28999089631971 0.0 0.0 0.0 34.46413024517268" Properties=species:S:1:pos:R:3:initial_magmoms:R:1 pbc="T T T"
Si      -0.93856464       2.00205729      -0.67956410       0.00000000
Si       1.67612697      -0.55053684      -1.55185172       0.00000000
Si       1.20643740       0.79607601       1.86740548       0.00000000
Si      -1.53942129      -1.81148058       0.57703326       0.00000000
Si      -2.55859862       0.86056812      -1.95360031       0.00000000
Si      -0.70550361       1.77582177       2.78680559       0.00000000
Si      -0.49648662      -2.06550684       2.62971800       0.00000000
Si       1.75500315      -1.38499209       2.58532818       0.00000000
Si       0.52704666      -0.82367127      -3.62807548       0.00000000
Si      -1.13733522      -3.48579936      -0.97778239       0.00000000
