10
Lattice="16.28999089631971 0.0 0.0 0.0 16.28999089631971 0.0 0.0 0.0 34.46413024517268" Properties=species:S:1:pos:R:3:initial_magmoms:R:1 pbc="T T T"
Si       0.48021291       0.25762635       2.27787350       0.00000000
Si       1.13023278      -1.81680741      -0.98277969       0.00000000
Si       0.92121579       2.02452120      -0.82569209       0.00000000
Si      -2.31403427      -0.28338084      -0.49507751       0.00000000
Si      -1.82083756       0.53392104       2.68475725       0.00000000
Si       0.08729811      -1.56278115      -3.03546443       0.00000000
Si       2.83315680       1.04477544      -1.74509221       0.00000000
Si      -2.16789668      -1.72799433      -2.29893109       0.00000000
Si      -2.29609898       2.48038056       1.36984655       0.00000000
Si      -3.20661224      -1.00382238       1.54740585       0.00000000
