10
Lattice="16.28999089631971 0.0 0.0 0.0 16.28999089631971 0.0 0.0 0.0 34.46413024517268" Properties=species:S:1:pos:R:3:initial_magmoms:R:1 pbc="T T T"
Si       0.85411728       1.41030675       1.62663893       0.00000000
Si       1.91194101      -0.97974576      -0.91940012       0.00000000
Si      -0.92121579      -2.02452120       0.82569209       0.00000000
Si      -1.25884233       1.26143244      -1.57783769       0.00000000
Si       0.70550361      -1.77582177      -2.78680559       0.00000000
Si      -1.22388399       1.76976189       2.61431252       0.00000000
Si      -0.23306103       0.22623552      -3.46636969       0.00000000
Si       1.47243681      -0.26349075       3.16921980       0.00000000
Si      -0.44100288      -1.76689485       3.10356559       0.00000000
Si       0.20901699      -3.84132861      -0.15708759       0.00000000
