10
Lattice="16.28999089631971 0.0 0.0 0.0 16.28999089631971 0.0 0.0 0.0 34.46413024517268" Properties=species:S:1:pos:R:3:initial_magmoms:R:1 pbc="T T T"
Si      -1.87348262       1.47867166      -0.26048004       0.00000000
Si       1.93501254       0.80608363      -1.36526282       0.00000000
Si      -0.62869105      -1.98311202      -1.52555558       0.00000000
Si       0.16988515      -0.27587115       2.61152093       0.00000000
Si       2.34338655      -1.16027154       2.50206279       0.00000000
Si       0.67408183       1.98578425      -3.01681933       0.00000000
Si      -0.75448994       3.22242983      -1.63842567       0.00000000
Si      -2.05444823      -0.73420659      -3.00551509       0.00000000
Si       2.75610999       2.62872449       0.04911141       0.00000000
Si      -1.48773542      -1.94996187       2.91763150       0.00000000
