10
Lattice="16.28999089631971 0.0 0.0 0.0 16.28999089631971 0.0 0.0 0.0 34.46413024517268" Properties=species:S:1:pos:R:3:initial_magmoms:R:1 pbc="T T T"
Si       2.17350139      -0.88440039      -0.10945814       0.00000000
Si      -1.65762057      -1.67409072       0.30611058       0.00000000
Si      -0.30523062       1.88507947       1.73168566       0.00000000
Si      -0.16988515       0.27587115      -2.61152093       0.00000000
Si       1.31319391      -3.01736412      -0.96203227       0.00000000
Si      -1.77132477       2.96739359       0.26933733       0.00000000
Si      -3.50990760      -0.22173948       0.29339330       0.00000000
Si      -2.04336777       1.75454281      -2.87200097       0.00000000
Si      -3.40213296       1.81351098      -0.85109217       0.00000000
Si       3.85487374       0.50891589      -1.35457893       0.00000000
