10
Lattice="16.28999089631971 0.0 0.0 0.0 16.28999089631971 0.0 0.0 0.0 34.46413024517268" Properties=species:S:1:pos:R:3:initial_magmoms:R:1 pbc="T T T"
Si      -2.33216504      -0.26464734      -0.24083548       0.00000000
Si       1.25884233      -1.26143244       1.57783769       0.00000000
Si       1.02578130      -1.03519692      -1.88853200       0.00000000
Si      -0.10744884       2.30352003       0.64844297       0.00000000
Si      -2.52350738      -1.09794600      -2.43602948       0.00000000
Si      -2.99161682      -1.48366062       1.65066044       0.00000000
Si       2.61879669       0.47848617      -2.68055262       0.00000000
Si       2.07677952       3.11615240       0.50062624       0.00000000
Si       1.96434594      -3.03725421      -1.20896790       0.00000000
Si       2.11295961       0.14887431       3.20447662       0.00000000
