10
Lattice="10.86 0.0 0.0 0.0 10.86 0.0 0.0 0.0 10.86" Properties=species:S:1:pos:R:3:initial_magmoms:R:1 pbc="T T T"
Si       1.35750000       1.35750000       1.35750000       0.00000000
Si       1.35750000      -1.35750000      -1.35750000       0.00000000
Si      -1.35750000      -1.35750000       1.35750000       0.00000000
Si      -1.35750000       1.35750000      -1.35750000       0.00000000
Si      -2.52398346      -2.63922978       0.01685472       0.00000000
Si       2.51164650      -0.04680660       2.69687466       0.00000000
Si       2.59044666       0.09641508      -2.66986584       0.00000000
Si      -2.50494588       0.04359204      -2.76111156       0.00000000
Si      -2.68173582       0.07184976       2.67803256       0.00000000
Si       0.00000000       2.71500000       2.71500000       0.00000000
