10
Lattice="10.86 0.0 0.0 0.0 10.86 0.0 0.0 0.0 10.86" Properties=species:S:1:pos:R:3:initial_magmoms:R:1 pbc="T T T"
Si      -1.15414650      -1.31069340       1.37562534       0.00000000
Si      -1.15414650       1.40430660      -1.33937466       0.00000000
Si       1.41058368      -1.42709088      -1.38690888       0.00000000
Si       1.56085350       1.40430660       1.37562534       0.00000000
Si       2.61551154       0.18383808      -2.47472250       0.00000000
Si      -2.51164650      -2.66819340       0.01812534       0.00000000
Si      -2.51164650       0.04680660      -2.69687466       0.00000000
Si      -2.51164650       0.04680660       2.73312534       0.00000000
Si      -2.51164650       2.76180660       0.01812534       0.00000000
Si       0.20335350      -2.66819340       2.73312534       0.00000000
