10
Lattice="10.86 0.0 0.0 0.0 10.86 0.0 0.0 0.0 10.86" Properties=species:S:1:pos:R:3:initial_magmoms:R:1 pbc="T T T"
Si       1.32423582       1.28565024       1.39446744       0.00000000
Si       1.32423582      -1.42934976      -1.32053256       0.00000000
Si      -1.39076418      -1.42934976       1.39446744       0.00000000
Si       2.68173582       2.64315024       0.03696744       0.00000000
Si       2.68173582      -0.07184976      -2.67803256       0.00000000
Si       0.15775236      -2.71107954      -2.66117784       0.00000000
Si      -0.03326418       2.64315024       2.75196744       0.00000000
Si       2.68173582      -0.07184976       2.75196744       0.00000000
Si       2.68173582      -2.78684976       0.03696744       0.00000000
Si      -0.11136930       2.74369212      -2.74067304       0.00000000
