10
Lattice="10.86 0.0 0.0 0.0 10.86 0.0 0.0 0.0 10.86" Properties=species:S:1:pos:R:3:initial_magmoms:R:1 pbc="T T T"
Si      -1.28047002      -1.32431184       1.28711634       0.00000000
Si      -1.28047002       1.39068816      -1.42788366       0.00000000
Si       1.43452998      -1.32431184      -1.42788366       0.00000000
Si      -2.63797002      -2.68181184      -0.07038366       0.00000000
Si       0.07702998      -2.68181184       2.64461634       0.00000000
Si      -2.63797002       0.03318816      -2.78538366       0.00000000
Si       0.07702998      -2.68181184      -2.78538366       0.00000000
Si       2.79202998      -2.68181184      -0.07038366       0.00000000
Si       0.07702998       2.74818816      -2.78538366       0.00000000
Si       2.79202998       0.03318816      -2.78538366       0.00000000
