10
Lattice="10.86 0.0 0.0 0.0 10.86 0.0 0.0 0.0 10.86" Properties=species:S:1:pos:R:3:initial_magmoms:R:1 pbc="T T T"
Si       1.06042470       1.38078384      -1.58857908       0.00000000
Si      -1.65457530       1.38078384       1.12642092       0.00000000
Si      -1.65457530      -1.33421616      -1.58857908       0.00000000
Si       2.31662262      -2.66965950      -0.20145300       0.00000000
Si       2.52515634       0.23287098       2.63780712       0.00000000
Si       2.41792470       2.73828384      -0.23107908       0.00000000
Si      -0.29707530       2.73828384       2.48392092       0.00000000
Si      -0.30586104      -2.78346144       2.43368256       0.00000000
Si       2.41792470       0.02328384      -2.94607908       0.00000000
Si      -3.01207530       0.02328384       2.48392092       0.00000000
