10
Lattice="16.290000149 0.0 0.0 0.0 16.290000149 0.0 0.0 0.0 29.1751946751" Properties=species:S:1:pos:R:3:initial_magmoms:R:1 pbc="T T T"
Si      -1.33558453      -1.36311300       1.36983374       0.00000000
Si       1.35052246      -1.34934144      -1.37292631       0.00000000
Si       1.35966115       1.34635222       1.36703292       0.00000000
Si      -1.36775728       1.34486983      -1.36431963       0.00000000
Si      -2.69627195      -2.70614369      -0.00796483       0.00000000
Si       2.71454933       2.69320943      -0.00673947       0.00000000
Si      -0.01415601       2.73310364       2.67472350       0.00000000
Si       2.72510525      -2.69549003      -0.03658569       0.00000000
Si      -0.01764207       2.70967862      -2.72014928       0.00000000
Si      -2.75968893      -0.00149868       2.67043474       0.00000000
