10
Lattice="16.290000149 0.0 0.0 0.0 16.290000149 0.0 0.0 0.0 29.1751946751" Properties=species:S:1:pos:R:3:initial_magmoms:R:1 pbc="T T T"
Si       1.32636439       1.38280924      -1.37520489       0.00000000
Si       1.34902378      -1.36186030       1.37658488       0.00000000
Si      -1.36296802       1.34824186       1.38994712       0.00000000
Si      -1.38929266      -1.37834578      -1.34197435       0.00000000
Si       2.52550388      -0.09011628      -2.80338902       0.00000000
Si      -2.64660374      -2.74773207       0.08354317       0.00000000
Si      -2.84037330       0.03934035      -2.55890089       0.00000000
Si       2.72166806       0.04427622       2.68819952       0.00000000
Si      -0.07146423       2.80780959      -2.60044637       0.00000000
Si       2.63596637       2.82941013      -0.00651190       0.00000000
