10
Lattice="16.290000149 0.0 0.0 0.0 16.290000149 0.0 0.0 0.0 29.1751946751" Properties=species:S:1:pos:R:3:initial_magmoms:R:1 pbc="T T T"
Si       1.14746761       0.12483027      -2.05968122       0.00000000
Si      -0.91963567      -1.83251099       1.17103396       0.00000000
Si       1.56124990       0.78053536       1.59325738       0.00000000
Si      -1.93337867       1.49156128      -0.31328324       0.00000000
Si      -1.95041801      -0.34454979       2.64085110       0.00000000
H       -2.83589355       0.50536467       1.75290405       0.00000000
H        1.84526606      -2.84444580      -0.14675123       0.00000000
Si      -0.05178591       0.95451256       3.27176468       0.00000000
Si       2.39774141       2.70888856       0.57329258       0.00000000
Si       2.67431303       1.97009633      -1.63284812       0.00000000
