10
Lattice="16.290000149 0.0 0.0 0.0 16.290000149 0.0 0.0 0.0 29.1751946751" Properties=species:S:1:pos:R:3:initial_magmoms:R:1 pbc="T T T"
Si      -2.30669660      -0.08960640       0.35832974       0.00000000
H       -0.90385066       1.56506176      -1.50336861       0.00000000
Si       0.97244785      -0.40496289      -2.15219576       0.00000000
Si       1.02281653       2.15083388       0.39310657       0.00000000
Si       0.05465295      -2.06734763       1.28881422       0.00000000
H       -2.91309186       1.21969747      -0.08341188       0.00000000
Si       2.84731284       1.26403885       1.53531544       0.00000000
Si       2.89039989      -1.46410775      -1.37359734       0.00000000
Si       3.52663842      -0.79096584       0.77439719       0.00000000
Si      -3.15522642      -1.74926909      -1.03875363       0.00000000
