10
Lattice="16.290000149 0.0 0.0 0.0 16.290000149 0.0 0.0 0.0 29.1751946751" Properties=species:S:1:pos:R:3:initial_magmoms:R:1 pbc="T T T"
Si      -1.29953134      -1.28971515       1.47206946       0.00000000
Si      -1.45106092       1.38450340      -1.22480385       0.00000000
Si       1.36197124       1.39606930       1.31764515       0.00000000
Si       1.43173805      -1.30669910      -1.35339352       0.00000000
Si      -2.62420157      -2.62568983       0.13423215       0.00000000
Si      -0.12860613       2.71034651      -2.58807288       0.00000000
Si       0.08552250      -2.51994394      -2.83611484       0.00000000
Si       2.71080606      -2.67933035       0.03417874       0.00000000
Si       2.65595763       0.04307076       2.74933031       0.00000000
Si       0.01137140       2.72274320       2.72418129       0.00000000
