10
Lattice="16.290000149 0.0 0.0 0.0 16.290000149 0.0 0.0 0.0 29.1751946751" Properties=species:S:1:pos:R:3:initial_magmoms:R:1 pbc="T T T"
Si      -1.34128603       1.35563752       1.34347103       0.00000000
Si       1.39782862      -1.42500034       1.22524148       0.00000000
Si       1.39281130       1.23347881      -1.42707547       0.00000000
Si      -1.50475618      -1.28529730      -1.28490475       0.00000000
H        0.50733576       2.08339328      -2.31502252       0.00000000
Si       2.70743060       0.02160054       2.59393447       0.00000000
Si      -2.55653633       2.76982131      -0.10695626       0.00000000
Si      -2.66274713      -0.04756680       2.68587426       0.00000000
Si       2.42359364      -0.25448238      -2.89689260       0.00000000
Si       0.07146423      -2.80780959       2.60044637       0.00000000
