10
Lattice="16.290000149 0.0 0.0 0.0 16.290000149 0.0 0.0 0.0 29.1751946751" Properties=species:S:1:pos:R:3:initial_magmoms:R:1 pbc="T T T"
Si      -1.48646251       1.80121790      -0.11848047       0.00000000
Si       1.08595657      -1.07952202      -1.79004407       0.00000000
Si      -1.65698624      -1.53044551       0.72990502       0.00000000
Si       1.86258233       0.83833228       1.24966111       0.00000000
H       -0.75158803       0.55589626       2.49258276       0.00000000
H       -1.40968774       0.96656716       2.45529686       0.00000000
Si       2.53488692      -2.43095672      -0.47027496       0.00000000
H        1.37974672       3.21799179      -0.97941129       0.00000000
H        0.80404183       3.33842376       1.36822910       0.00000000
Si       2.55684584       2.69718419      -0.17405921       0.00000000
