10
Lattice="16.290000149 0.0 0.0 0.0 16.290000149 0.0 0.0 0.0 29.1751946751" Properties=species:S:1:pos:R:3:initial_magmoms:R:1 pbc="T T T"
H        1.29575548       0.54203347       0.93261427       0.00000000
Si       1.22435641      -1.85595230      -0.66259785       0.00000000
Si      -1.02016126       1.33519357      -1.62292855       0.00000000
Si      -1.78681754      -0.58898125       1.43693669       0.00000000
H        0.97350670       1.26092746      -2.63058143       0.00000000
Si      -2.09038169       2.44661141       0.24422555       0.00000000
Si      -1.78355954      -0.70517782      -2.64187223       0.00000000
Si       2.48274263       1.08618463       1.97247656       0.00000000
Si      -0.29978487      -2.57375486      -2.28911495       0.00000000
Si      -2.85210210      -2.34797546       0.36632374       0.00000000
