10
Lattice="16.290000149 0.0 0.0 0.0 16.290000149 0.0 0.0 0.0 29.1751946751" Properties=species:S:1:pos:R:3:initial_magmoms:R:1 pbc="T T T"
Si       1.37557648       1.34232859      -1.34153380       0.00000000
Si       1.36221868      -1.39416337       1.30404368       0.00000000
Si      -1.35436690      -1.35374788      -1.35994335       0.00000000
Si      -1.35190711       1.36946773       1.35148254       0.00000000
Si       0.00625536       2.69003288      -2.68274668       0.00000000
Si       2.78094738      -0.08011422       2.61497270       0.00000000
Si      -2.74150929       0.01014867       2.66427878       0.00000000
Si       0.01211976      -2.75211408       2.65558457       0.00000000
Si       0.01563840      -2.73297332      -2.68137544       0.00000000
Si       0.02458161       2.73582408       2.68776481       0.00000000
