10
Lattice="16.290000149 0.0 0.0 0.0 16.290000149 0.0 0.0 0.0 29.1751946751" Properties=species:S:1:pos:R:3:initial_magmoms:R:1 pbc="T T T"
Si       1.43163363      -1.21233439       1.38669700       0.00000000
Si      -1.44744471       1.23502636       1.36910436       0.00000000
Si      -1.35434100      -1.42052059      -1.31297129       0.00000000
Si       1.36896600       1.43189101      -1.29978410       0.00000000
H       -2.97963325      -0.23907204       0.72961327       0.00000000
H       -1.16757762      -1.44868600       3.08352633       0.00000000
Si      -0.00021666       2.68657940       2.51621466       0.00000000
Si       2.57623420      -2.63466317      -0.08212817       0.00000000
Si      -0.04213571      -2.42370767       2.78112543       0.00000000
Si       2.56792630       0.03126051      -2.77800369       0.00000000
