10
Lattice="16.290000149 0.0 0.0 0.0 16.290000149 0.0 0.0 0.0 29.1751946751" Properties=species:S:1:pos:R:3:initial_magmoms:R:1 pbc="T T T"
Si       1.44360352      -1.19408959      -1.35873579       0.00000000
Si      -1.34517771      -1.46085463       1.23531538       0.00000000
Si      -1.35762816       1.24106995      -1.45781475       0.00000000
Si       1.42661305       1.35944938       1.27958290       0.00000000
Si      -2.70585047      -0.00291591       2.52192688       0.00000000
Si       0.08426817      -2.53900829      -2.70131990       0.00000000
Si       0.09703953       2.67362885       2.69951337       0.00000000
Si      -2.52824402       2.83301527      -0.17078021       0.00000000
Si       2.75546982      -0.03593574       2.64910738       0.00000000
Si       2.72347626      -2.68780115      -0.01896183       0.00000000
