10
Lattice="16.290000149 0.0 0.0 0.0 16.290000149 0.0 0.0 0.0 29.1751946751" Properties=species:S:1:pos:R:3:initial_magmoms:R:1 pbc="T T T"
Si      -0.22393863       2.13622175       0.90848639       0.00000000
Si      -1.81328879      -0.75328219      -1.38669700       0.00000000
Si       0.34424028      -1.95064607       1.37359734       0.00000000
Si       2.12185397       0.59285827      -1.00237216       0.00000000
H        2.19862874      -0.24179247       1.57140516       0.00000000
H       -1.35436690       2.19844955       1.91371772       0.00000000
H        2.85672846      -0.65246338       1.60869106       0.00000000
H       -1.05116113      -1.10884402       2.99728445       0.00000000
Si       1.95133025      -2.73880515      -0.15398668       0.00000000
H        1.06095142      -1.87354550       2.70173973       0.00000000
