10
Lattice="16.290000149 0.0 0.0 0.0 16.290000149 0.0 0.0 0.0 29.1751946751" Properties=species:S:1:pos:R:3:initial_magmoms:R:1 pbc="T T T"
Si       1.31025358      -1.42688998       1.29715833       0.00000000
Si      -1.35119035      -1.38642562      -1.32254075       0.00000000
Si       1.37624437       1.32968755      -1.35571295       0.00000000
Si      -1.29880171       1.35707104       1.41832291       0.00000000
Si       2.66186747      -0.08397495       2.60805818       0.00000000
Si      -2.66880539       2.70005123       0.06176389       0.00000000
Si       0.00979029       2.68739390      -2.68344688       0.00000000
Si      -2.68833872      -0.02722059      -2.68677285       0.00000000
Si      -2.63024533      -0.03948696       2.76219073       0.00000000
Si       0.03679911      -2.73735533      -2.65689745       0.00000000
