10
Lattice="16.290000149 0.0 0.0 0.0 16.290000149 0.0 0.0 0.0 29.1751946751" Properties=species:S:1:pos:R:3:initial_magmoms:R:1 pbc="T T T"
Si      -1.33361344      -1.34013922       1.32809862       0.00000000
Si       1.49760487      -1.23585064      -1.27980492       0.00000000
Si      -1.24998058       1.37013562      -1.41278254       0.00000000
Si       1.41990157       1.42946380       1.23500058       0.00000000
Si       0.65700829       2.16081965      -2.53430912       0.00000000
H       -0.55412065      -0.45735804      -3.33646068       0.00000000
Si       2.36255501       0.49277250      -2.66087316       0.00000000
Si       0.10093284      -2.68615586       2.58934229       0.00000000
Si      -2.66352905       0.07980471       2.61393698       0.00000000
Si      -2.69402393      -2.62217130      -0.08252496       0.00000000
