10
Lattice="16.290000149 0.0 0.0 0.0 16.290000149 0.0 0.0 0.0 29.1751946751" Properties=species:S:1:pos:R:3:initial_magmoms:R:1 pbc="T T T"
Si       1.35874891       1.36516717       1.33126413       0.00000000
Si       1.36542781      -1.34742736      -1.34987791       0.00000000
Si      -1.32934546       1.36664956      -1.37572713       0.00000000
Si      -1.35601219      -1.37759644       1.35577130       0.00000000
Si       2.69377958      -0.00977400       2.68595595       0.00000000
Si      -0.00311139      -2.69606018      -2.68796904       0.00000000
Si      -2.70780527       0.00262269      -2.68047101       0.00000000
Si      -2.71440272       2.68112225      -0.01727172       0.00000000
Si       0.01207089       2.71256195       2.69829705       0.00000000
Si       2.69711903       2.72230337      -0.04951031       0.00000000
