10
Lattice="16.290000149 0.0 0.0 0.0 16.290000149 0.0 0.0 0.0 29.1751946751" Properties=species:S:1:pos:R:3:initial_magmoms:R:1 pbc="T T T"
Si      -1.14746761      -0.12483027       2.05968122       0.00000000
Si      -1.52686171       0.99676882      -1.50619860       0.00000000
Si       0.99751816      -1.76679713      -1.26874169       0.00000000
Si       1.52684542       1.84526606       0.42683310       0.00000000
H       -2.05698719      -2.79301827      -0.90288475       0.00000000
H        0.69779845      -2.96927607       1.91292999       0.00000000
Si       2.29988738      -0.46677366      -2.76245331       0.00000000
Si      -2.56227041       2.61659105      -0.18937619       0.00000000
Si      -0.23363118       2.43390717      -2.78494738       0.00000000
Si       0.41378229       0.65570509       3.65293860       0.00000000
