10
Lattice="16.290000149 0.0 0.0 0.0 16.290000149 0.0 0.0 0.0 29.1751946751" Properties=species:S:1:pos:R:3:initial_magmoms:R:1 pbc="T T T"
Si      -0.51029403      -0.91228888      -2.09063610       0.00000000
Si       2.05705235       1.00730845       0.71858504       0.00000000
Si      -1.41830678       1.94701340       0.00743967       0.00000000
Si      -0.68549787      -1.76665052       1.50071366       0.00000000
H        1.46300491       1.56939490      -2.38253392       0.00000000
Si      -1.94771387      -0.34057503       2.82966741       0.00000000
H        2.85847149      -0.46494918      -1.93061016       0.00000000
Si       0.26443557       1.20420568      -3.26738840       0.00000000
Si       1.04806603       2.24655392       2.56067766       0.00000000
Si      -3.09031077       1.16023897       1.44936532       0.00000000
