10
Lattice="16.290000149 0.0 0.0 0.0 16.290000149 0.0 0.0 0.0 29.1751946751" Properties=species:S:1:pos:R:3:initial_magmoms:R:1 pbc="T T T"
Si       1.38722383       1.35920503      -1.30430625       0.00000000
Si       1.38201103      -1.34565175       1.33634062       0.00000000
Si      -1.31797504       1.37029852       1.38871009       0.00000000
Si      -1.33073011      -1.34548885      -1.41444261       0.00000000
Si       0.01669725       2.71992341      -2.61762764       0.00000000
Si       0.01314603      -2.68918580       2.67909978       0.00000000
Si      -2.67734460      -2.69320943      -0.04612598       0.00000000
Si      -2.66398029       2.73173528       0.03410580       0.00000000
Si       2.71117730       0.00757485      -2.68884429       0.00000000
Si      -2.69345216       0.02200779       2.73920068       0.00000000
