10
Lattice="16.290000149 0.0 0.0 0.0 16.290000149 0.0 0.0 0.0 29.1751946751" Properties=species:S:1:pos:R:3:initial_magmoms:R:1 pbc="T T T"
Si      -2.23029650       0.50981184      -0.32757909       0.00000000
Si       0.89098156      -1.41752323       1.59389924       0.00000000
Si       0.56246113      -1.03304665      -2.01043349       0.00000000
Si       1.24168897       1.78619363      -0.84199612       0.00000000
H       -0.02233359      -1.48949245       2.80677043       0.00000000
Si       0.60545044       1.11305173      -2.98999065       0.00000000
Si       2.77977450      -0.07853409       1.98225025       0.00000000
Si       3.29835036       1.17132594       0.04647609       0.00000000
Si       1.16297569       1.45312014       3.05525556       0.00000000
Si      -1.05870340      -2.72013680      -2.08153344       0.00000000
