10
Lattice="16.290000149 0.0 0.0 0.0 16.290000149 0.0 0.0 0.0 29.1751946751" Properties=species:S:1:pos:R:3:initial_magmoms:R:1 pbc="T T T"
Si      -1.34766749      -1.35410626       1.35717171       0.00000000
Si      -1.36853498       1.35720136      -1.34022092       0.00000000
Si       1.33035803      -1.34877943      -1.39139421       0.00000000
Si       1.31425048       1.36643779       1.39393245       0.00000000
Si       0.02993009       2.69179220      -2.67466515       0.00000000
Si       2.68140340      -2.70765866      -0.03174261       0.00000000
Si      -2.69178799       0.01368360       2.70471560       0.00000000
Si       2.68972759       2.71472852       0.04344186       0.00000000
Si      -2.71881310      -2.70141959       0.00175051       0.00000000
Si       2.70262927       0.01773981       2.72505071       0.00000000
