10
Lattice="16.290000149 0.0 0.0 0.0 16.290000149 0.0 0.0 0.0 29.1751946751" Properties=species:S:1:pos:R:3:initial_magmoms:R:1 pbc="T T T"
Si       1.33877737       1.02636775      -1.63150606       0.00000000
Si       1.43542594      -1.61722039       0.94090003       0.00000000
Si      -1.84389770      -1.17320907      -0.99785001       0.00000000
Si      -0.11948715       1.72866224       1.78263357       0.00000000
H       -2.23031279       1.52407612       0.51138281       0.00000000
Si       2.77860162       2.27454014      -0.23130094       0.00000000
Si       0.61476832       0.42243228       3.59721398       0.00000000
Si       2.61588080      -0.46528476       2.63889636       0.00000000
Si      -2.90465364       2.34020513      -0.57087103       0.00000000
Si       0.14219541      -3.05435874       2.21964881       0.00000000
