10
Lattice="16.290000149 0.0 0.0 0.0 16.290000149 0.0 0.0 0.0 29.1751946751" Properties=species:S:1:pos:R:3:initial_magmoms:R:1 pbc="T T T"
Si      -1.26221600       1.42607548       1.32895375       0.00000000
Si       1.63435780      -1.18439704       1.21123680       0.00000000
Si       0.68549787       1.76665052      -1.50071366       0.00000000
Si      -1.33335443      -1.97822504      -0.48909296       0.00000000
Si       0.29812818      -2.59097014       2.56363311       0.00000000
Si       0.17520384       0.85436164      -3.59134976       0.00000000
Si      -2.58467079       0.10023237       2.69222278       0.00000000
Si      -0.40088224      -2.79274785      -2.48444288       0.00000000
Si       0.24458784       2.81276175       2.49335590       0.00000000
Si      -2.40481290       2.92688949      -0.05134834       0.00000000
