10
Lattice="16.290000149 0.0 0.0 0.0 16.290000149 0.0 0.0 0.0 29.1751946751" Properties=species:S:1:pos:R:3:initial_magmoms:R:1 pbc="T T T"
Si      -1.35492076      -1.35461125       1.33441505       0.00000000
Si      -1.37458279       1.34614860      -1.33634062       0.00000000
Si       1.30611592       1.31490112       1.44577677       0.00000000
Si       1.35322660      -1.38367261      -1.33826618       0.00000000
Si       0.04015485      -2.80437240       2.52832237       0.00000000
Si       2.67418271       2.67367772       0.07016634       0.00000000
Si      -0.00936675       2.69358410      -2.68575172       0.00000000
Si       2.71379999      -0.02073717      -2.67950823       0.00000000
Si      -2.72404640      -0.02399517      -2.68750223       0.00000000
Si      -2.72510525       2.69549003       0.03658569       0.00000000
