10
Lattice="16.290000149 0.0 0.0 0.0 16.290000149 0.0 0.0 0.0 29.1751946751" Properties=species:S:1:pos:R:3:initial_magmoms:R:1 pbc="T T T"
Si       0.14921640      -0.79503346      -1.27723167       0.00000000
H       -1.39546657       2.03434409      -0.45192377       0.00000000
Si       0.91435771      -0.16084746       2.54031338       0.00000000
H       -1.29652111      -2.67496463       0.43517720       0.00000000
Si      -2.06091308      -0.71223139      -2.07669036       0.00000000
Si       1.01112031      -2.87246460      -0.48623379       0.00000000
Si      -0.80141914       1.47225763       2.64919520       0.00000000
Si       2.78291847       0.73484191       1.26185634       0.00000000
Si       0.86457547      -2.45495189       1.87284327       0.00000000
Si       1.22846149       0.37362744      -2.98155902       0.00000000
