10
Lattice="16.290000149 0.0 0.0 0.0 16.290000149 0.0 0.0 0.0 29.1751946751" Properties=species:S:1:pos:R:3:initial_magmoms:R:1 pbc="T T T"
Si       1.29951847       1.23737212      -1.50036356       0.00000000
Si       1.44298450      -1.35231436       1.28712206       0.00000000
Si      -1.49868001       1.34117200       1.24493473       0.00000000
Si      -1.44119260      -1.40900356      -1.31291294       0.00000000
Si      -2.81037526      -0.15431517       2.50308583       0.00000000
Si       2.50004261      -2.81593830      -0.19404422       0.00000000
Si      -0.12175146       2.60941367      -2.75212529       0.00000000
Si       0.12851181      -2.71098182       2.67151423       0.00000000
Si       2.48187926      -0.21354561      -2.91203453       0.00000000
Si       3.15364629       2.16815015      -0.39211462       0.00000000
