10
Lattice="16.290000149 0.0 0.0 0.0 16.290000149 0.0 0.0 0.0 29.1751946751" Properties=species:S:1:pos:R:3:initial_magmoms:R:1 pbc="T T T"
Si       0.92426203      -1.04495464       1.83546985       0.00000000
Si      -0.77038669      -2.04599144      -0.87907779       0.00000000
Si      -1.29919267       1.49885920       1.32350353       0.00000000
Si       1.99280459       0.59784301      -1.17272613       0.00000000
H       -0.26383284       2.67659363      -1.42970124       0.00000000
Si      -0.15369615      -1.53031519      -3.06114895       0.00000000
Si       2.25781031      -2.59160870       0.67762307       0.00000000
Si      -1.01419912      -2.07195770       2.73922985       0.00000000
Si       1.98954659       0.71403958       2.90608279       0.00000000
Si       0.29170503       2.31350582       2.88743984       0.00000000
