10
Lattice="16.290000149 0.0 0.0 0.0 16.290000149 0.0 0.0 0.0 29.1751946751" Properties=species:S:1:pos:R:3:initial_magmoms:R:1 pbc="T T T"
H       -0.88547554       0.84991447      -0.88794705       0.00000000
Si       1.03078234      -1.48796119      -1.46981713       0.00000000
Si      -1.39281130      -1.23347881       1.42707547       0.00000000
Si       1.89863210       1.29906235       0.63091358       0.00000000
Si       1.95041801       0.34454979      -2.64085110       0.00000000
Si       0.01703934       1.83611108      -2.95413434       0.00000000
H       -2.78506875       0.42515271      -2.12961416       0.00000000
Si       2.14829264       0.78581332       2.92947926       0.00000000
Si       0.00501732      -2.65847915       2.65231695       0.00000000
Si       2.53307873      -2.79451695      -0.17087912       0.00000000
