10
Lattice="16.290000149 0.0 0.0 0.0 16.290000149 0.0 0.0 0.0 29.1751946751" Properties=species:S:1:pos:R:3:initial_magmoms:R:1 pbc="T T T"
Si      -1.34172586      -1.34626426      -1.39051895       0.00000000
Si       1.30927618       1.34608181      -1.42287424       0.00000000
Si       1.42581484      -1.36587742       1.29462009       0.00000000
Si      -1.41949432       1.35667031       1.33494021       0.00000000
Si       0.08055405      -2.65716944       2.66544579       0.00000000
Si      -2.67891007      -2.69589077      -0.02062686       0.00000000
Si       2.60249042       2.78277837      -0.10937780       0.00000000
Si      -0.10573839       2.82400836       2.61409744       0.00000000
Si       2.68068242      -0.04892213       2.76595433       0.00000000
Si      -2.76149223       2.69121228      -0.04784732       0.00000000
