10
Lattice="16.290000149 0.0 0.0 0.0 16.290000149 0.0 0.0 0.0 29.1751946751" Properties=species:S:1:pos:R:3:initial_magmoms:R:1 pbc="T T T"
H       -1.13042827       0.06222780       1.00523133       0.00000000
Si       0.22393863      -2.13622175      -0.90848639       0.00000000
Si       2.06133662       0.69457303       0.90305980       0.00000000
Si      -0.22604004       1.51198894      -1.83864994       0.00000000
H       -0.45638064       0.98350876       2.62355021       0.00000000
H       -2.05372919       1.83238067       1.45377078       0.00000000
Si       2.34579260      -1.54336348      -1.91085855       0.00000000
H        2.42256737      -2.37801422       0.66291877       0.00000000
Si       3.32368131       0.44847999      -1.03256849       0.00000000
Si       1.72364492       2.81460252       1.83678273       0.00000000
