10
Lattice="16.290000149 0.0 0.0 0.0 16.290000149 0.0 0.0 0.0 29.1751946751" Properties=species:S:1:pos:R:3:initial_magmoms:R:1 pbc="T T T"
Si      -0.99176779       1.85974787      -0.88354160       0.00000000
Si      -1.77200993      -1.48190131       0.34073710       0.00000000
Si       0.37449081       0.64625689       2.22915992       0.00000000
Si       1.73770319      -0.98857495      -1.28554660       0.00000000
H       -0.37312245      -1.19316106      -2.55679736       0.00000000
Si       1.85826548      -1.22232016       2.58191720       0.00000000
Si       2.47195865      -2.29480490       0.52903381       0.00000000
Si      -2.48034800       0.84727549      -2.35312533       0.00000000
Si      -1.09268434      -3.53690601      -0.42018115       0.00000000
Si      -3.59650623      -0.59510629      -0.80147177       0.00000000
