10
Lattice="16.290000149 0.0 0.0 0.0 16.290000149 0.0 0.0 0.0 29.1751946751" Properties=species:S:1:pos:R:3:initial_magmoms:R:1 pbc="T T T"
Si       2.24792228      -0.50186232       0.27121261       0.00000000
Si      -1.57361401      -1.68442022      -0.44900625       0.00000000
Si      -0.72941734       0.63781867       2.17703056       0.00000000
Si      -0.08192241       1.46111527      -1.92611718       0.00000000
H        0.26792163      -1.10319791      -2.82765987       0.00000000
Si      -2.82483264      -0.57756196      -2.05504236       0.00000000
Si      -1.30627882       3.31706757      -1.26351933       0.00000000
Si       1.31219209      -2.21867359      -2.84391045       0.00000000
Si       3.18039447      -1.31638514      -1.72413730       0.00000000
H       -0.01052334       3.85910104      -0.33090506       0.00000000
