10
Lattice="16.290000149 0.0 0.0 0.0 16.290000149 0.0 0.0 0.0 29.1751946751" Properties=species:S:1:pos:R:3:initial_magmoms:R:1 pbc="T T T"
Si       1.34135445       1.36177885       1.35387491       0.00000000
Si      -1.33503067       1.37494117      -1.35469181       0.00000000
Si       1.36597679      -1.35115777      -1.35008213       0.00000000
Si      -1.35355240      -1.34824186       1.37385992       0.00000000
Si      -2.69377958       0.00977400      -2.68595595       0.00000000
Si       2.67568139       0.00257382       2.71346816       0.00000000
Si      -0.00320913      -2.72078840      -2.67551123       0.00000000
Si      -2.68170869       2.72233595       0.01234111       0.00000000
Si       2.69521310      -2.71285517       0.02217315       0.00000000
Si       2.69272073       2.72609894      -0.01073647       0.00000000
