10
Lattice="16.290000149 0.0 0.0 0.0 16.290000149 0.0 0.0 0.0 29.1751946751" Properties=species:S:1:pos:R:3:initial_magmoms:R:1 pbc="T T T"
H        0.84753613       0.93711484       0.80368909       0.00000000
Si      -1.29648853       1.29380068      -1.42383703       0.00000000
Si       1.43058781      -1.43568658      -1.13094725       0.00000000
Si      -1.82814527      -0.82642429       1.17033376       0.00000000
H        1.65912023       0.19220571       2.46078179       0.00000000
H        2.27699993       1.86176783       1.36469891       0.00000000
Si      -2.37790019       2.71254566       0.07626396       0.00000000
Si       2.78285331      -0.04683375      -2.47064301       0.00000000
Si       0.06991668      -2.75294487      -2.51093395       0.00000000
Si       0.12082293       2.61975782      -2.66066105       0.00000000
