10
Lattice="16.290000149 0.0 0.0 0.0 16.290000149 0.0 0.0 0.0 29.1751946751" Properties=species:S:1:pos:R:3:initial_magmoms:R:1 pbc="T T T"
Si      -0.27375671       0.82069021       2.15420885       0.00000000
Si       1.65350018      -1.65157796       0.09689082       0.00000000
Si      -1.77002255      -1.00872568      -1.15285782       0.00000000
Si       0.91929358       1.73120348      -1.28140373       0.00000000
Si      -0.42948585      -2.30612645      -2.57940814       0.00000000
Si      -2.54306450       1.30331404       2.03642859       0.00000000
Si       2.44683947       0.46726236      -2.49535440       0.00000000
Si       3.48050514      -0.35702793      -0.54160831       0.00000000
Si       1.01188594       2.80826896       2.27061788       0.00000000
Si       2.11729277      -2.07531344       2.30895408       0.00000000
