10
Lattice="16.290000149 0.0 0.0 0.0 16.290000149 0.0 0.0 0.0 29.1751946751" Properties=species:S:1:pos:R:3:initial_magmoms:R:1 pbc="T T T"
Si       1.40810761      -1.18144855      -1.46990466       0.00000000
Si      -1.31646333      -1.42803028       1.34518070       0.00000000
Si      -1.83987407       1.17538215      -0.93313943       0.00000000
Si       1.44689410       1.44152003       1.27510188       0.00000000
H        0.80845642       2.59486670      -1.44484317       0.00000000
Si      -0.47275209       2.55902870      -2.26472449       0.00000000
Si      -2.77234626       1.98990497       1.06221049       0.00000000
Si      -2.48707919       0.16391503       2.63221524       0.00000000
Si      -0.13229109      -2.49412934      -2.66007755       0.00000000
Si       2.79707448      -2.49652397      -0.04043682       0.00000000
