10
Lattice="16.290000149 0.0 0.0 0.0 16.290000149 0.0 0.0 0.0 29.1751946751" Properties=species:S:1:pos:R:3:initial_magmoms:R:1 pbc="T T T"
Si      -1.35646831      -1.34944732      -1.35434171       0.00000000
Si      -1.34403904       1.33069753       1.38655113       0.00000000
Si       1.34066701       1.35335692      -1.38523824       0.00000000
Si       1.34526079      -1.38047977       1.35480852       0.00000000
Si       0.06867864      -2.70979265      -2.62419206       0.00000000
Si      -2.70687674       2.67069665       0.02287335       0.00000000
Si       2.70513209       2.68333769      -0.00659359       0.00000000
Si      -2.69552261      -0.06037074       2.71434341       0.00000000
Si       2.69535157      -0.03495834      -2.71501444       0.00000000
Si       2.69749370      -0.02725317       2.71530619       0.00000000
