10
Lattice="16.290000149 0.0 0.0 0.0 16.290000149 0.0 0.0 0.0 29.1751946751" Properties=species:S:1:pos:R:3:initial_magmoms:R:1 pbc="T T T"
H       -1.04427046       1.11547568       0.01625058       0.00000000
Si      -0.83649151      -1.92835320       1.01996481       0.00000000
Si       0.27657162      -0.73879223      -2.20614070       0.00000000
Si       1.86820238       0.90228845       1.11977315       0.00000000
Si       2.54587942      -1.22141607      -2.08836043       0.00000000
Si      -2.39774141      -2.70888856      -0.57329258       0.00000000
Si       0.93573019       1.71681126       3.11512306       0.00000000
H        0.17905968       3.27532444      -1.67777792       0.00000000
Si      -2.88580611       0.53425336       2.39490421       0.00000000
Si       0.93356362      -3.08583916       2.04742764       0.00000000
