10
Lattice="16.290000149 0.0 0.0 0.0 16.290000149 0.0 0.0 0.0 29.1751946751" Properties=species:S:1:pos:R:3:initial_magmoms:R:1 pbc="T T T"
Si       1.34403904      -1.33069753      -1.38655113       0.00000000
Si      -1.36283770       1.33999912      -1.36367777       0.00000000
Si      -1.35148357      -1.39106827       1.32779228       0.00000000
Si       1.37114560       1.34731333       1.35542119       0.00000000
Si      -2.73153981      -0.04323366       2.64706541       0.00000000
Si       2.68929983      -2.71117730      -0.03174261       0.00000000
Si      -2.69837336      -0.06421518      -2.70197313       0.00000000
Si      -2.71818200       2.69325830       0.00148793       0.00000000
Si       0.02702511       2.71510319       2.70296509       0.00000000
Si       2.71881310       2.70141959      -0.00175051       0.00000000
