10
Lattice="16.290000149 0.0 0.0 0.0 16.290000149 0.0 0.0 0.0 29.1751946751" Properties=species:S:1:pos:R:3:initial_magmoms:R:1 pbc="T T T"
Si      -0.65813230       0.42222051      -2.13017724       0.00000000
Si      -1.90698887      -0.79068403       1.12152658       0.00000000
Si       0.85789657       1.93663667       1.04037577       0.00000000
Si       1.70554673      -1.66804715      -0.12656404       0.00000000
H       -1.21112893      -2.61817769      -0.80215155       0.00000000
Si       2.17385165       0.67310281       2.51212430       0.00000000
Si      -0.65700829      -2.16081965       2.53430912       0.00000000
Si       3.43156998      -0.72927073       1.14893375       0.00000000
Si       0.84059659      -3.39667029       1.25450420       0.00000000
Si      -2.35597385       2.02168676      -2.14882019       0.00000000
