10
Lattice="16.290000149 0.0 0.0 0.0 16.290000149 0.0 0.0 0.0 29.1751946751" Properties=species:S:1:pos:R:3:initial_magmoms:R:1 pbc="T T T"
Si      -1.30849426      -1.28993995       1.47000677       0.00000000
Si      -1.34902378       1.36186030      -1.37658488       0.00000000
Si       1.43122312      -1.37223703      -1.28378442       0.00000000
Si       1.37264428       1.40613652       1.31161464       0.00000000
Si      -2.62063748      -2.64982916       0.12458392       0.00000000
Si       2.64823274       0.06338439      -2.72433592       0.00000000
Si       2.74717821      -2.63577089       0.18796411       0.00000000
Si      -2.71199180       2.71010216       0.01336224       0.00000000
Si       2.71230131       0.06949314       2.73300095       0.00000000
Si      -2.73831645      -0.01648548      -2.71855923       0.00000000
