10
Lattice="16.290000149 0.0 0.0 0.0 16.290000149 0.0 0.0 0.0 29.1751946751" Properties=species:S:1:pos:R:3:initial_magmoms:R:1 pbc="T T T"
Si      -1.31214322      -1.35988921      -1.34542285       0.00000000
Si       1.31760037      -1.39128004       1.34118370       0.00000000
Si      -1.41840289       1.33082785       1.30226399       0.00000000
Si       1.30849426       1.28993995      -1.47000677       0.00000000
Si      -0.04489524       2.65753433       2.66553331       0.00000000
Si       2.69606018      -0.02725317       2.64592758       0.00000000
Si       2.68113854       2.69607647      -0.15839213       0.00000000
Si       2.64471410      -2.75028960      -0.02485727       0.00000000
Si      -2.77024485      -0.04468347       2.64858252       0.00000000
Si      -2.76965841       2.64968255      -0.10558503       0.00000000
