10
Lattice="16.290000149 0.0 0.0 0.0 16.290000149 0.0 0.0 0.0 29.1751946751" Properties=species:S:1:pos:R:3:initial_magmoms:R:1 pbc="T T T"
Si       1.37845981       1.36402687       1.30474388       0.00000000
Si      -1.31760037       1.39128004      -1.34118370       0.00000000
Si       1.32711373      -1.35900955      -1.36604096       0.00000000
Si      -1.37046142      -1.35853714       1.33747845       0.00000000
Si      -2.62974359       0.03139083      -2.68660655       0.00000000
Si      -0.00659745       2.67849956       2.66319930       0.00000000
Si       2.73807210       0.04544910      -2.62322636       0.00000000
Si       2.70780527      -0.00262269       2.68047101       0.00000000
Si      -0.09278784      -2.78847336      -2.60104154       0.00000000
Si      -0.00799839      -2.72419301       2.67332309       0.00000000
