10
Lattice="16.290000149 0.0 0.0 0.0 16.290000149 0.0 0.0 0.0 29.1751946751" Properties=species:S:1:pos:R:3:initial_magmoms:R:1 pbc="T T T"
Si       1.36098064      -1.35114148      -1.35267873       0.00000000
Si       1.37472940       1.36344043       1.33132248       0.00000000
Si      -1.35423658       1.35195598      -1.36881261       0.00000000
Si      -1.35488818      -1.34685721       1.37377239       0.00000000
Si      -0.00019548       2.72422559       2.64820325       0.00000000
Si       2.68473863      -2.71502174       0.04032012       0.00000000
Si      -2.71454933      -2.69320943       0.00673947       0.00000000
Si      -2.72870534       0.03989421       2.68146297       0.00000000
Si       0.00118917      -2.69511536      -2.71559795       0.00000000
Si       2.71699283       0.02645496      -2.70845002       0.00000000
