10
Lattice="16.290000149 0.0 0.0 0.0 16.290000149 0.0 0.0 0.0 29.1751946751" Properties=species:S:1:pos:R:3:initial_magmoms:R:1 pbc="T T T"
H        0.65809972      -0.41067090       0.03728590       0.00000000
H       -1.13767732      -1.63175302       1.13033457       0.00000000
Si      -1.85438846      -1.70885360      -0.19780782       0.00000000
Si       0.86403790       1.75089809       1.75468373       0.00000000
Si      -0.07677477       0.83465074      -2.57377732       0.00000000
Si      -2.19862874       0.24179247      -1.57140516       0.00000000
Si       2.64248237       0.20364129       1.12642509       0.00000000
Si       1.40968774      -0.96656716      -2.45529686       0.00000000
Si      -0.24729849      -2.49701267      -1.72539184       0.00000000
Si      -0.36123075       3.07258725       0.24014103       0.00000000
