10
Lattice="16.290000149 0.0 0.0 0.0 16.290000149 0.0 0.0 0.0 29.1751946751" Properties=species:S:1:pos:R:3:initial_magmoms:R:1 pbc="T T T"
Si       1.36945144      -1.34200279       1.35297048       0.00000000
Si       1.37681452       1.35496963      -1.33266454       0.00000000
Si      -1.32051628       1.36831114       1.38345856       0.00000000
Si      -1.36635634      -1.36220239      -1.35221192       0.00000000
Si      -0.02015073      -2.70132185       2.66576671       0.00000000
Si      -0.00563634       2.71427729      -2.65468014       0.00000000
Si       2.72761392      -0.02143764      -2.68125874       0.00000000
Si      -2.68381010       0.01853802       2.73365739       0.00000000
Si      -2.70979265       2.71654649       0.05009381       0.00000000
Si       2.72135855      -2.71147052       0.00148794       0.00000000
