10
Lattice="16.290000149 0.0 0.0 0.0 16.290000149 0.0 0.0 0.0 29.1751946751" Properties=species:S:1:pos:R:3:initial_magmoms:R:1 pbc="T T T"
Si      -1.39204567      -1.34350147      -1.32957197       0.00000000
Si      -1.35969373       1.35534430       1.35372903       0.00000000
Si       1.33025770      -1.37021707       1.37161343       0.00000000
Si       1.36057339       1.34429968      -1.37208023       0.00000000
Si      -0.03601719      -2.73851355      -2.61923228       0.00000000
Si       2.70730028       2.70145217      -0.00989039       0.00000000
Si      -2.70206794       2.71350677      -0.00983204       0.00000000
Si       2.70365132      -0.02256165       2.71405166       0.00000000
Si       2.69001659      -2.72760903       0.03226777       0.00000000
Si      -0.01255959       2.71762814       2.70404457       0.00000000
