10
Lattice="10.86 0.0 0.0 0.0 10.86 0.0 0.0 0.0 10.86" Properties=species:S:1:pos:R:3:initial_magmoms:R:1 pbc="T T T"
Si       1.14570828       1.28137140      -1.45778124       0.00000000
Si      -1.56962838      -1.22104410      -1.08428412       0.00000000
Si      -1.61941062       1.47576540       1.43777712       0.00000000
Si       2.58476688       0.01925478      -2.68895772       0.00000000
Si       0.82419798      -3.55837674      -0.77196138       0.00000000
Si       2.58476688       2.73425478       0.02604228       0.00000000
Si      -0.13023312      -2.69574522      -2.68895772       0.00000000
Si      -0.13023312       2.73425478      -2.68895772       0.00000000
Si      -0.13023312       2.73425478       2.74104228       0.00000000
Si      -2.84523312       0.01925478      -2.68895772       0.00000000
