10
Lattice="10.86 0.0 0.0 0.0 10.86 0.0 0.0 0.0 10.86" Properties=species:S:1:pos:R:3:initial_magmoms:R:1 pbc="T T T"
Si       1.35750000      -1.35750000      -1.35750000       0.00000000
Si       1.35750000       1.35750000       1.35750000       0.00000000
Si      -1.35750000      -1.35750000       1.35750000       0.00000000
Si      -1.35750000       1.35750000      -1.35750000       0.00000000
Si       2.32430064       2.76950634      -0.03039714       0.00000000
Si       0.21067314      -2.31324516      -2.79936048       0.00000000
Si       0.02750838      -2.64922098       2.62858698       0.00000000
Si       2.63070468      -2.74077078       0.10263786       0.00000000
Si       2.71500000       0.00000000      -2.71500000       0.00000000
Si      -2.71500000       0.00000000       2.71500000       0.00000000
