10
Lattice="10.86 0.0 0.0 0.0 10.86 0.0 0.0 0.0 10.86" Properties=species:S:1:pos:R:3:initial_magmoms:R:1 pbc="T T T"
Si      -0.96680064      -1.41200634       1.38789714       0.00000000
Si       1.74819936       1.30299366       1.38789714       0.00000000
Si       1.74819936      -1.41200634      -1.32710286       0.00000000
Si      -2.07515052       0.02707398      -2.66972466       0.00000000
Si       0.22635498       2.44891914      -2.45131920       0.00000000
Si      -2.32430064      -2.76950634       0.03039714       0.00000000
Si      -2.52880530       0.40578390       2.57021448       0.00000000
Si       0.42210648       2.61757494       2.70189198       0.00000000
Si       0.39069936      -2.76950634      -2.68460286       0.00000000
Si       0.39069936      -2.76950634       2.74539714       0.00000000
