10
Lattice="10.86 0.0 0.0 0.0 10.86 0.0 0.0 0.0 10.86" Properties=species:S:1:pos:R:3:initial_magmoms:R:1 pbc="T T T"
Si      -1.38500838       1.29172098      -1.27108698       0.00000000
Si       1.32999162       1.29172098       1.44391302       0.00000000
Si      -1.38500838      -1.42327902       1.44391302       0.00000000
Si       2.60319630      -0.09154980      -2.52594912       0.00000000
Si      -0.02750838       2.64922098      -2.62858698       0.00000000
Si       2.68749162       2.64922098       0.08641302       0.00000000
Si      -2.74250838       2.64922098       0.08641302       0.00000000
Si      -0.02750838       2.64922098       2.80141302       0.00000000
Si      -1.17585564      -3.21106308      -1.81215390       0.00000000
Si       2.68749162      -0.06577902       2.80141302       0.00000000
