10
Lattice="10.86 0.0 0.0 0.0 10.86 0.0 0.0 0.0 10.86" Properties=species:S:1:pos:R:3:initial_magmoms:R:1 pbc="T T T"
Si       1.32609288      -1.31458128      -1.31399484       0.00000000
Si      -1.38890712      -1.31458128       1.40100516       0.00000000
Si       1.32609288       1.40041872       1.40100516       0.00000000
Si      -2.95091178      -2.21179104      -0.13167750       0.00000000
Si      -0.11570244       2.73214794      -2.56885698       0.00000000
Si      -0.42210648      -2.61757494      -2.70189198       0.00000000
Si       2.68359288       0.04291872      -2.67149484       0.00000000
Si       2.68359288      -2.67208128       0.04350516       0.00000000
Si      -0.03140712      -2.67208128       2.75850516       0.00000000
Si       2.68359288       2.75791872       0.04350516       0.00000000
