10
Lattice="10.86 0.0 0.0 0.0 10.86 0.0 0.0 0.0 10.86" Properties=species:S:1:pos:R:3:initial_magmoms:R:1 pbc="T T T"
Si       1.12390140       1.47151914      -1.49985288       0.00000000
Si      -1.59109860       1.47151914       1.21514712       0.00000000
Si      -1.59109860      -1.24348086      -1.49985288       0.00000000
Si       2.31812130       0.01443294       2.39625900       0.00000000
Si       2.31026952      -2.51197230      -0.04352688       0.00000000
Si       2.48140140       2.82901914      -0.14235288       0.00000000
Si       2.48140140       0.11401914      -2.85735288       0.00000000
Si      -0.23359860       2.82901914       2.57264712       0.00000000
Si      -0.23359860      -2.60098086      -2.85735288       0.00000000
Si      -2.94859860       0.11401914       2.57264712       0.00000000
