10
Lattice="10.86 0.0 0.0 0.0 10.86 0.0 0.0 0.0 10.86" Properties=species:S:1:pos:R:3:initial_magmoms:R:1 pbc="T T T"
Si       1.52078010       1.45708620      -1.18111188       0.00000000
Si      -1.19421990       1.45708620       1.53388812       0.00000000
Si       1.52078010      -1.25791380       1.53388812       0.00000000
Si      -2.31812130      -0.01443294      -2.39625900       0.00000000
Si      -0.00785178      -2.52640524      -2.43978588       0.00000000
Si       0.16328010       2.81458620      -2.53861188       0.00000000
Si      -2.55171990       2.81458620       0.17638812       0.00000000
Si       2.87828010       0.09958620      -2.53861188       0.00000000
Si      -2.55171990       0.09958620       2.89138812       0.00000000
Si      -2.59111998      -2.88512190       0.30099576       0.00000000
