10
Lattice="10.86 0.0 0.0 0.0 10.86 0.0 0.0 0.0 10.86" Properties=species:S:1:pos:R:3:initial_magmoms:R:1 pbc="T T T"
Si      -0.60894192       0.96646398       1.83433002       0.00000000
Si       2.20976022       0.91103454      -0.70061118       0.00000000
Si      -1.69027212      -0.21932856      -1.82028804       0.00000000
Si      -1.89869724       2.32118382       0.64774470       0.00000000
Si       0.81630276       2.32118382      -2.06725530       0.00000000
Si      -3.17089194       0.96942876      -0.64211922       0.00000000
Si      -0.54184884       1.03281858      -3.38257506       0.00000000
Si       2.29708548      -1.86099132       2.02923444       0.00000000
Si      -0.54119724       3.67868382      -0.70975530       0.00000000
Si      -1.89869724      -0.39381618       3.36274470       0.00000000
