10
Lattice="16.28999089631971 0.0 0.0 0.0 16.28999089631971 0.0 0.0 0.0 34.31420841018396" Properties=species:S:1:pos:R:3:initial_magmoms:R:1 pbc="T T T"
Si      -1.35656604      -1.35482301      -1.35654436       0.00000000
Si       1.35713619      -1.35487188       1.35620122       0.00000000
Si      -1.35293337       1.36013355       1.36134835       0.00000000
Si       1.35821133       1.36005210      -1.35630416       0.00000000
Si       0.01622484      -2.69659610       2.72533890       0.00000000
Si       2.71435383      -2.71195920       0.00041177       0.00000000
Si       0.00112401      -2.71274112      -2.71418677       0.00000000
Si      -2.71419093       0.00244350      -2.71480443       0.00000000
Si       2.71539639       0.00280188      -2.71425540       0.00000000
Si      -2.71549413      -2.71428378       0.00089217       0.00000000
