10
Lattice="16.28999089631971 0.0 0.0 0.0 16.28999089631971 0.0 0.0 0.0 34.31420841018396" Properties=species:S:1:pos:R:3:initial_magmoms:R:1 pbc="T T T"
Si      -1.30481271       1.34379712      -1.48124226       0.00000000
Si      -1.94856093      -1.02707458       0.92905771       0.00000000
Si       1.38912975      -1.39061851      -1.45856056       0.00000000
Si       1.55558097       1.31632567       1.45083986       0.00000000
Si      -2.52060057       2.74975281      -0.00418634       0.00000000
Si      -3.53113443       0.88641954       1.05588310       0.00000000
Si       2.77317702       2.63674908      -0.06509409       0.00000000
Si      -2.67950952      -0.03043609      -2.84461515       0.00000000
Si       0.03609864       2.68552134      -2.85037994       0.00000000
Si       2.57197923      -2.96089306      -0.01650514       0.00000000
