10
Lattice="16.28999089631971 0.0 0.0 0.0 16.28999089631971 0.0 0.0 0.0 34.31420841018396" Properties=species:S:1:pos:R:3:initial_magmoms:R:1 pbc="T T T"
Si      -0.65018277       1.35301482       1.78849186       0.00000000
Si      -2.10075840      -0.99281686      -0.24778304       0.00000000
Si       0.25337466       1.51501887      -1.84589956       0.00000000
Si       1.53596781      -1.72607276       0.66247048       0.00000000
Si      -1.79981694      -1.93398857      -2.37855931       0.00000000
Si      -2.06234658      -2.40773435       1.68987277       0.00000000
Si       1.00843245       3.41197308      -0.65584783       0.00000000
Si      -3.68716005       0.78737715      -0.32299982       0.00000000
Si       0.96189192      -3.67288091      -0.53327741       0.00000000
Si      -0.28548225       0.27267831       3.84374252       0.00000000
