10
Lattice="16.28999089631971 0.0 0.0 0.0 16.28999089631971 0.0 0.0 0.0 34.31420841018396" Properties=species:S:1:pos:R:3:initial_magmoms:R:1 pbc="T T T"
Si       0.73018296      -2.22990552      -0.40617751       0.00000000
Si       0.58398021       1.63214397      -1.63370038       0.00000000
Si      -2.35685349      -0.42182955       0.07133928       0.00000000
Si       0.90502353       1.00152549       2.05854483       0.00000000
Si       1.06254783      -2.70405529       1.81608050       0.00000000
Si       0.25143615       3.42625941      -0.16769363       0.00000000
Si       2.34062865      -0.78959259       2.41208431       0.00000000
Si      -2.36530800      -1.75576878      -1.88402267       0.00000000
Si       2.10631329       2.83747365       1.11504083       0.00000000
Si      -3.54112020       1.63462005      -0.04203493       0.00000000
