10
Lattice="16.28999089631971 0.0 0.0 0.0 16.28999089631971 0.0 0.0 0.0 34.31420841018396" Properties=species:S:1:pos:R:3:initial_magmoms:R:1 pbc="T T T"
Si       0.33236487      -0.47414977       2.22225801       0.00000000
Si       1.69521885      -0.36573819      -1.51112995       0.00000000
Si      -1.63502730      -1.32537395      -1.03327002       0.00000000
Si      -0.73018296       2.22990552       0.40617751       0.00000000
Si      -1.91953215      -2.49389216       0.95671498       0.00000000
Si      -3.09549096       0.47413674      -1.47784515       0.00000000
Si       1.61044569       1.44031293       2.81826183       0.00000000
Si       3.53994732       0.19479582      -0.20588537       0.00000000
Si      -1.98560439      -0.87840567       2.84149256       0.00000000
Si      -3.08703645       1.80807597       0.47751679       0.00000000
