10
Lattice="16.28999089631971 0.0 0.0 0.0 16.28999089631971 0.0 0.0 0.0 34.31420841018396" Properties=species:S:1:pos:R:3:initial_magmoms:R:1 pbc="T T T"
Si      -0.28450485      -1.16851821       1.98998500       0.00000000
Si       1.63502730       1.32537395       1.03327002       0.00000000
Si      -1.46046366       1.79951069      -0.44457513       0.00000000
Si       0.01304829      -1.62079377      -1.83814454       0.00000000
Si      -3.42595967       0.46342281      -0.36503475       0.00000000
Si       3.33024615       0.95963575      -0.47785993       0.00000000
Si      -1.66602717      -2.91946515       1.26375869       0.00000000
Si      -3.06200198      -1.83593580      -0.45092326       0.00000000
Si      -0.42375177       2.89703315      -2.34517157       0.00000000
Si      -1.45200915       3.13344992       1.51078681       0.00000000
