10
Lattice="16.28999089631971 0.0 0.0 0.0 16.28999089631971 0.0 0.0 0.0 34.31420841018396" Properties=species:S:1:pos:R:3:initial_magmoms:R:1 pbc="T T T"
Si      -1.35614250      -1.35741312      -1.35678456       0.00000000
Si       1.35707103       1.35729909      -1.35664730       0.00000000
Si      -1.35739683       1.35716877       1.35747084       0.00000000
Si       1.35747828      -1.35746199       1.35798556       0.00000000
Si       2.71466334      -2.71471221       0.00003431       0.00000000
Si      -2.71477737       2.71500543       0.00017157       0.00000000
Si       2.71507059      -0.00083079       2.71477012       0.00000000
Si      -0.00065160       2.71466334       2.71528483       0.00000000
Si      -2.71492398      -2.71507059      -0.00051471       0.00000000
Si       2.71521720       2.71518462       0.00058334       0.00000000
