10
Lattice="16.28999089631971 0.0 0.0 0.0 16.28999089631971 0.0 0.0 0.0 34.31420841018396" Properties=species:S:1:pos:R:3:initial_magmoms:R:1 pbc="T T T"
Si      -1.35265644       1.35516510       1.35685319       0.00000000
Si      -1.35563751      -1.35747828      -1.35692182       0.00000000
Si       1.35909099       1.35703845      -1.35668162       0.00000000
Si       1.36282140      -1.35751086       1.36148561       0.00000000
Si      -2.70596611      -0.01604565       2.71353480       0.00000000
Si      -2.71325263      -0.00066789      -2.71367206       0.00000000
Si      -2.71357354       2.71428867       0.00092648       0.00000000
Si       0.00171045       2.71487511      -2.71398089       0.00000000
Si      -2.71438641      -2.71451673       0.00061766       0.00000000
Si       0.00156384      -2.71520091      -2.71466717       0.00000000
