10
Lattice="16.28999089631971 0.0 0.0 0.0 16.28999089631971 0.0 0.0 0.0 34.31420841018396" Properties=species:S:1:pos:R:3:initial_magmoms:R:1 pbc="T T T"
Si      -1.36371735      -1.34372952      -1.38464771       0.00000000
Si       1.34614044       1.37137365      -1.38104472       0.00000000
Si      -1.46961864       1.27290060       1.35551493       0.00000000
Si       1.46706111      -1.34105796       1.60020969       0.00000000
Si       0.30923307       2.27913390       2.60901367       0.00000000
Si       2.69923671      -2.70826137      -0.00418634       0.00000000
Si      -2.71368594      -2.71971324      -0.00984818       0.00000000
Si       2.72088612       2.72039742      -0.00274514       0.00000000
Si      -0.01078398      -2.70386307      -2.74599606       0.00000000
Si       2.70501966       0.01282023      -2.74551566       0.00000000
