10
Lattice="16.28999089631971 0.0 0.0 0.0 16.28999089631971 0.0 0.0 0.0 34.31420841018396" Properties=species:S:1:pos:R:3:initial_magmoms:R:1 pbc="T T T"
Si      -2.07578583       0.13351284      -1.11692811       0.00000000
Si       0.07534125      -2.06039178       1.15525710       0.00000000
Si       1.66597830       0.67958622      -1.56067970       0.00000000
Si       0.10974573       1.35392706       2.02416197       0.00000000
Si       2.45886147       1.40325318       1.90406217       0.00000000
Si       2.77594632       2.27633202      -0.24884678       0.00000000
Si      -3.59841213      -0.23003109       0.70567209       0.00000000
Si      -0.70284834       3.41044182       1.17327207       0.00000000
Si       3.05939232      -1.22536638      -1.69001002       0.00000000
Si      -2.00868732      -1.69424145      -2.68556871       0.00000000
