10
Lattice="16.28999089631971 0.0 0.0 0.0 16.28999089631971 0.0 0.0 0.0 34.31420841018396" Properties=species:S:1:pos:R:3:initial_magmoms:R:1 pbc="T T T"
Si      -1.35674523      -1.35749457      -1.35781399       0.00000000
Si       1.35799956       1.35788553      -1.35747084       0.00000000
Si      -1.35620766       1.35827649       1.36028461       0.00000000
Si       1.35684297      -1.35694071       1.36395623       0.00000000
Si       0.03246597       2.69324199       2.71960842       0.00000000
Si      -2.71412577       0.00034209      -2.71511326       0.00000000
Si       0.00065160      -2.71466334      -2.71528483       0.00000000
Si       0.00079821       2.71526607      -2.71507894       0.00000000
Si      -2.71583622      -2.71453302      -0.00113237       0.00000000
Si       2.71586880       0.00052128      -2.71470149       0.00000000
