10
Lattice="16.28999089631971 0.0 0.0 0.0 16.28999089631971 0.0 0.0 0.0 34.31420841018396" Properties=species:S:1:pos:R:3:initial_magmoms:R:1 pbc="T T T"
Si      -1.34311050      -1.36011726      -1.37476521       0.00000000
Si       1.36917450       1.35752715      -1.37020142       0.00000000
Si       1.26646605      -1.45616310       1.37002985       0.00000000
Si      -1.51549128       1.12557384       1.50783579       0.00000000
Si       0.12287547       2.46252672       2.69294627       0.00000000
Si      -0.49518342      -2.56388310       2.72369181       0.00000000
Si      -2.70817503       2.69930187       0.01262764       0.00000000
Si      -2.69642017      -2.73132801      -0.01808360       0.00000000
Si      -2.70402760      -0.00099369      -2.73069192       0.00000000
Si       0.00954594      -2.71528236      -2.73161840       0.00000000
