10
Lattice="16.28999089631971 0.0 0.0 0.0 16.28999089631971 0.0 0.0 0.0 34.31420841018396" Properties=species:S:1:pos:R:3:initial_magmoms:R:1 pbc="T T T"
Si       1.39359321      -1.45562553      -1.17773292       0.00000000
Si      -1.52884908       1.45683099      -1.10831524       0.00000000
Si      -1.78965198      -0.95519673       1.33341657       0.00000000
Si       1.67081643       1.60274052       0.77196718       0.00000000
Si       2.56642434       0.31343589      -2.28316576       0.00000000
Si       0.15299568       3.42156789       0.55146395       0.00000000
Si      -0.38525850      -2.46185883      -2.43123165       0.00000000
Si       2.26642770       0.75751758       2.92470456       0.00000000
Si      -0.96011631      -3.15020907       2.05916248       0.00000000
Si      -3.16721583       0.11987811      -2.29342571       0.00000000
