10
Lattice="16.28999089631971 0.0 0.0 0.0 16.28999089631971 0.0 0.0 0.0 34.31420841018396" Properties=species:S:1:pos:R:3:initial_magmoms:R:1 pbc="T T T"
Si      -0.78607395      -1.32556617      -1.77788876       0.00000000
Si      -0.86636736      -0.32224878       2.18701730       0.00000000
Si       0.67939074       2.25608355      -0.35940722       0.00000000
Si       2.25090333      -0.75992850       0.33360292       0.00000000
Si      -0.71905689       0.89223588      -3.01728435       0.00000000
Si       2.89657377       1.46772900       0.00549028       0.00000000
Si      -2.12925613      -2.27380870       1.85914485       0.00000000
Si       0.80032770      -3.10576018      -1.70267197       0.00000000
Si      -0.57274011       3.41167986       1.36354446       0.00000000
Si       0.98888445      -0.60230646       3.57149344       0.00000000
