10
Lattice="16.28999089631971 0.0 0.0 0.0 16.28999089631971 0.0 0.0 0.0 34.31420841018396" Properties=species:S:1:pos:R:3:initial_magmoms:R:1 pbc="T T T"
Si      -0.95087988       1.94896818      -0.82031592       0.00000000
Si       1.79923050       1.01371041       1.08614825       0.00000000
Si      -0.98228700      -1.67728356       1.30620539       0.00000000
Si       0.41117589      -1.15711128      -2.03414741       0.00000000
Si       1.14282495       2.57719203      -1.92959196       0.00000000
Si      -1.87155810      -1.05300189      -2.86335072       0.00000000
Si       0.79938288      -3.25801629       1.26801365       0.00000000
Si      -2.63551023       1.12844088      -2.20359107       0.00000000
Si       1.22376996      -3.21362604      -1.18325751       0.00000000
Si       3.73896225       0.51258114      -0.11073201       0.00000000
