10
Lattice="16.28999089631971 0.0 0.0 0.0 16.28999089631971 0.0 0.0 0.0 34.31420841018396" Properties=species:S:1:pos:R:3:initial_magmoms:R:1 pbc="T T T"
Si      -1.97954451       0.70661133       1.01103440       0.00000000
Si       1.52845812       1.43943327       1.09438366       0.00000000
Si       0.05633082       1.10954448      -2.11993298       0.00000000
Si       0.11471418      -2.40153696       0.31291144       0.00000000
Si       0.80729982      -2.79997407      -1.94520493       0.00000000
Si      -2.48295438      -1.09027341       2.35721586       0.00000000
Si       2.31616107       0.85152717      -2.61278823       0.00000000
Si       0.06472017       3.16197045       1.76622192       0.00000000
Si      -2.15041032      -2.88438885       0.89120912       0.00000000
Si       3.04315119       2.07278847      -0.74561385       0.00000000
