10
Lattice="16.28999089631971 0.0 0.0 0.0 16.28999089631971 0.0 0.0 0.0 34.31420841018396" Properties=species:S:1:pos:R:3:initial_magmoms:R:1 pbc="T T T"
Si       2.13698736      -0.93657726      -0.20664028       0.00000000
Si      -0.30094146       0.94117171       2.13077628       0.00000000
Si      -0.30597507       1.61758627      -1.72044674       0.00000000
Si      -1.55918106      -1.79836713      -0.24037116       0.00000000
Si      -0.78304401      -2.34067752      -2.37694654       0.00000000
Si       1.77023430      -2.17834767      -2.05717226       0.00000000
Si       1.79981694       1.93398857       2.37855931       0.00000000
Si      -1.01662632      -3.18764349       1.57128280       0.00000000
Si       2.76170886      -1.73889234       1.84528190       0.00000000
Si       0.66800403      -2.36711619       2.95455794       0.00000000
