10
Lattice="16.28999089631971 0.0 0.0 0.0 16.28999089631971 0.0 0.0 0.0 34.31420841018396" Properties=species:S:1:pos:R:3:initial_magmoms:R:1 pbc="T T T"
Si       1.46046366      -1.79951069       0.44457513       0.00000000
Si       0.00845451       1.33393923       1.95536194       0.00000000
Si      -1.96549601      -1.33608788       0.07954038       0.00000000
Si       1.03671189       1.09752246      -1.90059644       0.00000000
Si       3.09549096      -0.47413674       1.47784515       0.00000000
Si       2.36530800       1.75576878       1.88402267       0.00000000
Si      -0.81853992       1.37758014      -3.28507258       0.00000000
Si      -2.60678770      -1.41559937       2.39472131       0.00000000
Si      -0.91873971      -0.09883143       3.82401184       0.00000000
Si      -3.44876309      -0.83476639      -1.72765273       0.00000000
