10
Lattice="16.28999089631971 0.0 0.0 0.0 16.28999089631971 0.0 0.0 0.0 34.31420841018396" Properties=species:S:1:pos:R:3:initial_magmoms:R:1 pbc="T T T"
Si      -2.18087262      -0.52070985      -0.74708936       0.00000000
Si       0.82839537       0.97125867      -1.99132326       0.00000000
Si       0.62149608      -2.25126171       0.55969937       0.00000000
Si      -0.01304829       1.62079377       1.83814454       0.00000000
Si      -3.07505027      -0.21514203       1.38722128       0.00000000
Si       2.91812544      -2.07700758       0.76620239       0.00000000
Si       3.54680541       0.19476324       1.10193279       0.00000000
Si      -1.67907546      -1.29867138       3.10190323       0.00000000
Si      -2.38034367      -2.85296544      -1.03814264       0.00000000
Si      -0.29755314       0.45227556       3.82812954       0.00000000
