10
Lattice="16.28999089631971 0.0 0.0 0.0 16.28999089631971 0.0 0.0 0.0 34.31420841018396" Properties=species:S:1:pos:R:3:initial_magmoms:R:1 pbc="T T T"
Si      -1.35288450      -1.35047358      -1.38560851       0.00000000
Si       1.36111095       1.36510200      -1.38001529       0.00000000
Si       1.38419388      -1.39924584       1.39967734       0.00000000
Si      -1.23217560       1.36720341       1.60439603       0.00000000
Si       0.73337580       2.11421394       2.88462554       0.00000000
Si       2.46615939       0.15332148       2.73388314       0.00000000
Si      -2.69379585      -2.69219780      -0.01647083       0.00000000
Si      -2.69923671       2.70826137       0.00418634       0.00000000
Si       0.00433314      -2.70756090      -2.74139796       0.00000000
Si      -2.71002069       0.00439830      -2.74180973       0.00000000
