10
Lattice="16.28999089631971 0.0 0.0 0.0 16.28999089631971 0.0 0.0 0.0 34.31420841018396" Properties=species:S:1:pos:R:3:initial_magmoms:R:1 pbc="T T T"
Si       0.54872865      -2.32706105      -0.04488301       0.00000000
Si       2.08616256       1.10907565      -0.37663296       0.00000000
Si      -0.58880205       0.54846345       2.28474422       0.00000000
Si      -0.67689837       1.55403863      -1.80636957       0.00000000
Si       3.27876975      -0.09143691       1.32116639       0.00000000
Si      -2.84447835      -0.11726715       2.34448529       0.00000000
Si       2.74018977      -2.34804257       0.96697493       0.00000000
Si      -0.38309193       3.68654624      -0.62640622       0.00000000
Si      -1.41157737      -3.38393996       0.84563982       0.00000000
Si       2.04776703       3.49249976       0.26946963       0.00000000
