10
Lattice="16.28999089631971 0.0 0.0 0.0 16.28999089631971 0.0 0.0 0.0 34.31420841018396" Properties=species:S:1:pos:R:3:initial_magmoms:R:1 pbc="T T T"
Si       1.35089712       1.34530965      -1.37853978       0.00000000
Si      -1.36404315      -1.36741518      -1.37648093       0.00000000
Si       1.30841280      -1.44985887       1.35774536       0.00000000
Si      -1.25991747       1.33532388       1.58964091       0.00000000
Si      -1.99177830      -0.61830324       2.88815991       0.00000000
Si      -0.25899471      -2.57919570       2.73741751       0.00000000
Si      -2.70350469       2.69614161       0.00497556       0.00000000
Si       2.72222190       2.70374904      -0.00528439       0.00000000
Si      -0.00504990       2.70539433      -2.73875576       0.00000000
Si       2.71011843      -0.01097946      -2.73796653       0.00000000
