10
Lattice="16.28999089631971 0.0 0.0 0.0 16.28999089631971 0.0 0.0 0.0 34.31420841018396" Properties=species:S:1:pos:R:3:initial_magmoms:R:1 pbc="T T T"
Si       2.02862628      -1.25371098       0.49532588       0.00000000
Si       0.92719422       1.43277066      -1.86864989       0.00000000
Si      -1.68804799      -1.31676794      -1.42929052       0.00000000
Si       0.18124254       1.12801734       2.31404857       0.00000000
Si      -1.99975730      -3.09149081       0.20440985       0.00000000
Si       2.09469852      -2.86919747      -1.38945170       0.00000000
Si      -2.36775869      -1.82367202       2.37691223       0.00000000
Si      -0.65558779      -0.70303079       3.71844896       0.00000000
Si       0.91873971       0.09883143      -3.82401184       0.00000000
Si      -0.25707249       3.48922026      -1.98202410       0.00000000
