10
Lattice="16.28999089631971 0.0 0.0 0.0 16.28999089631971 0.0 0.0 0.0 34.31420841018396" Properties=species:S:1:pos:R:3:initial_magmoms:R:1 pbc="T T T"
Si       0.19218942      -2.13719913      -0.91207217       0.00000000
Si      -1.28405925       0.05299137       1.96503825       0.00000000
Si       1.97786664       0.85753818       0.94508246       0.00000000
Si      -0.65663361       1.07733915      -1.99588705       0.00000000
Si       0.62910351       0.84320298       3.24252435       0.00000000
Si      -2.08570644      -2.37363219      -1.55882673       0.00000000
Si       3.39851754      -0.95935068       0.24150353       0.00000000
Si      -2.42388684      -0.27259686      -2.63835233       0.00000000
Si       2.42792676       2.58611895      -0.60389609       0.00000000
Si       1.00289385       0.49322862      -3.51580144       0.00000000
