10
Lattice="16.28999089631971 0.0 0.0 0.0 16.28999089631971 0.0 0.0 0.0 34.31420841018396" Properties=species:S:1:pos:R:3:initial_magmoms:R:1 pbc="T T T"
Si       1.55634660       1.28632356      -1.28707662       0.00000000
Si      -1.30543173       1.35785295       1.50605488       0.00000000
Si      -1.18117161      -1.26964260      -1.69527867       0.00000000
Si       1.39404933      -1.33253829       1.47910449       0.00000000
Si      -0.24364953       2.21066703      -2.73379877       0.00000000
Si      -2.13363162       0.64987326      -2.78496128       0.00000000
Si      -2.53531044      -2.58478317      -0.02948278       0.00000000
Si      -2.67571395       2.64660372       0.17384617       0.00000000
Si       2.64445344      -2.85672843       0.10664176       0.00000000
Si       2.78751222       2.73175155       0.07689475       0.00000000
