10
Lattice="16.28999089631971 0.0 0.0 0.0 16.28999089631971 0.0 0.0 0.0 34.31420841018396" Properties=species:S:1:pos:R:3:initial_magmoms:R:1 pbc="T T T"
Si      -1.35786924      -1.35575154       1.35760810       0.00000000
Si       1.35804843      -1.35726651      -1.35719633       0.00000000
Si       1.35669636       1.35920502       1.35726496       0.00000000
Si      -1.35627282       1.35799956      -1.36007872       0.00000000
Si       0.00711873       2.69851995      -2.71033672       0.00000000
Si       0.00423540      -2.68871337      -2.73066103       0.00000000
Si       2.71337643      -2.71360449       0.00051471       0.00000000
Si       2.71425609       0.00141723       2.71377500       0.00000000
Si      -0.00027693      -2.71337643       2.71480443       0.00000000
Si       2.71236645       2.71629234       0.00020589       0.00000000
