10
Lattice="16.28999089631971 0.0 0.0 0.0 16.28999089631971 0.0 0.0 0.0 34.31420841018396" Properties=species:S:1:pos:R:3:initial_magmoms:R:1 pbc="T T T"
Si      -0.91526994       1.02495051       1.82606594       0.00000000
Si      -0.73969632       0.87278562      -1.99108306       0.00000000
Si       2.30215167       0.67737078       0.14878649       0.00000000
Si      -0.15087798      -2.38588227      -0.30738685       0.00000000
Si       2.83594239      -1.42263828       1.06693228       0.00000000
Si       1.20003543       0.37165635      -3.18796331       0.00000000
Si       2.10895227      -2.64389958      -0.80024210       0.00000000
Si      -0.14248863      -0.33345630       3.57876805       0.00000000
Si      -3.21189930       0.85069638       1.61956291       0.00000000
Si       2.79052587       1.59602904      -2.00250969       0.00000000
