10
Lattice="16.28999089631971 0.0 0.0 0.0 16.28999089631971 0.0 0.0 0.0 34.31420841018396" Properties=species:S:1:pos:R:3:initial_magmoms:R:1 pbc="T T T"
Si       1.35114147       1.35125550       1.37631622       0.00000000
Si      -1.35999834      -1.36643778       1.37888978       0.00000000
Si      -1.42679060       1.27273770      -1.42274680       0.00000000
Si       1.30531770      -1.20052413      -1.60988973       0.00000000
Si      -2.29319054      -0.54351585      -2.77047038       0.00000000
Si      -0.50823171      -2.24109675      -2.92100690       0.00000000
Si       2.70313002      -2.70218520      -0.00978299       0.00000000
Si      -2.73250808       2.69521308       0.00635499       0.00000000
Si       2.72010420       2.70795186       0.00738442       0.00000000
Si      -2.69965862      -2.74196538       0.01823115       0.00000000
