10
Lattice="16.28999089631971 0.0 0.0 0.0 16.28999089631971 0.0 0.0 0.0 34.31420841018396" Properties=species:S:1:pos:R:3:initial_magmoms:R:1 pbc="T T T"
Si       1.37028222      -1.28875077       1.33220871       0.00000000
Si       1.50633630       1.12844088      -1.37354531       0.00000000
Si      -1.27309608      -1.15408134      -1.59855716       0.00000000
Si      -1.35821133       1.44456748       1.30873435       0.00000000
Si      -0.19302021       2.07224668      -2.67743079       0.00000000
Si       0.54208233      -1.99673046      -2.95880745       0.00000000
Si      -2.24803629       0.77747283      -2.78840300       0.00000000
Si       0.00689067      -2.62927116       2.68246670       0.00000000
Si       2.67571395      -2.64660372      -0.17384617       0.00000000
Si      -2.76565104      -2.59087563      -0.23328184       0.00000000
