10
Lattice="16.28999089631971 0.0 0.0 0.0 16.28999089631971 0.0 0.0 0.0 34.31420841018396" Properties=species:S:1:pos:R:3:initial_magmoms:R:1 pbc="T T T"
Si      -1.50633630      -1.12844088       1.37354531       0.00000000
Si      -1.69935651       0.94380580      -1.30388548       0.00000000
Si       1.20075219       1.59659986       1.28421851       0.00000000
Si       0.92572812      -1.56437757      -1.53409963       0.00000000
Si      -2.77943238      -2.28252222      -0.22501185       0.00000000
Si      -0.13605408      -2.41719165       2.70575402       0.00000000
Si      -0.96425397      -3.12517134      -1.58526214       0.00000000
Si       2.72572425      -2.48872104      -0.08737748       0.00000000
Si       2.56999185       0.30417662       2.69730242       0.00000000
Si       3.09565386       2.26410542       0.00888690       0.00000000
