10
Lattice="16.28999089631971 0.0 0.0 0.0 16.28999089631971 0.0 0.0 0.0 34.31420841018396" Properties=species:S:1:pos:R:3:initial_magmoms:R:1 pbc="T T T"
Si       0.58916043      -0.74474622       2.12195752       0.00000000
Si      -0.88501941      -1.78364097      -1.22611598       0.00000000
Si       1.96030602       1.05687891      -0.89052283       0.00000000
Si      -2.00697687       1.31986467       0.30309757       0.00000000
Si      -1.35057132      -0.24361695       3.31883778       0.00000000
Si      -2.73862593      -2.41443864       0.19854212       0.00000000
Si       1.41157737       3.38393996      -0.84563982       0.00000000
Si      -2.63169837       2.12217975      -1.74882461       0.00000000
Si      -1.48063068      -0.93841803      -3.37885336       0.00000000
Si       0.74016873      -3.54854844      -1.22357673       0.00000000
