10
Lattice="16.28999089631971 0.0 0.0 0.0 16.28999089631971 0.0 0.0 0.0 34.31420841018396" Properties=species:S:1:pos:R:3:initial_magmoms:R:1 pbc="T T T"
Si      -0.02322954       0.81269181      -2.16502188       0.00000000
Si      -2.02079079      -0.41940234       1.04788788       0.00000000
Si       0.41142024       2.07586728       1.06442734       0.00000000
Si       1.54961883      -1.80255366       0.01046584       0.00000000
Si       2.20763709       1.67075127      -1.98370550       0.00000000
Si       3.42575442      -0.60295806       0.68336784       0.00000000
Si       0.51209244       1.14235254       3.35974034       0.00000000
Si      -1.37788965      -0.41844123       3.30857782       0.00000000
Si      -3.27619593       1.47374001       0.50459072       0.00000000
Si      -1.70843004       3.06676210       1.22337084       0.00000000
