10
Lattice="16.28999089631971 0.0 0.0 0.0 16.28999089631971 0.0 0.0 0.0 34.31420841018396" Properties=species:S:1:pos:R:3:initial_magmoms:R:1 pbc="T T T"
Si       1.35563751       1.35747828       1.35692182       0.00000000
Si      -1.35761512       1.35681039      -1.35675024       0.00000000
Si       1.35720135      -1.35772263      -1.35774536       0.00000000
Si      -1.35874890      -1.35703845       1.35753947       0.00000000
Si       0.00298107       2.71264338       2.71377500       0.00000000
Si      -2.71167317       0.00154755       2.71627994       0.00000000
Si       0.00014661       2.71463076      -2.71353480       0.00000000
Si       2.71472850       2.71451673       0.00024020       0.00000000
Si      -0.00224802      -2.71538010      -2.71408383       0.00000000
Si      -2.71494054       2.71479366       0.00034314       0.00000000
