10
Lattice="16.28999089631971 0.0 0.0 0.0 16.28999089631971 0.0 0.0 0.0 34.31420841018396" Properties=species:S:1:pos:R:3:initial_magmoms:R:1 pbc="T T T"
Si       1.35716990       1.35704171      -1.35726496       0.00000000
Si      -1.35751086      -1.35783191      -1.35723064       0.00000000
Si       1.35629736      -1.36007232       1.35695613       0.00000000
Si      -1.35628911       1.36012052       1.35894636       0.00000000
Si      -0.00268785       2.69676389       2.72674578       0.00000000
Si       0.00060273       2.71398242      -2.71415246       0.00000000
Si       0.00154755      -2.70692952       2.72190747       0.00000000
Si      -2.71647153       2.71243487       0.00027451       0.00000000
Si      -0.00057015      -2.71491162      -2.71401520       0.00000000
Si       2.71448808      -0.00041702      -2.71459854       0.00000000
