10
Lattice="16.28999089631971 0.0 0.0 0.0 16.28999089631971 0.0 0.0 0.0 34.31420841018396" Properties=species:S:1:pos:R:3:initial_magmoms:R:1 pbc="T T T"
Si       1.54428127      -1.12536207      -1.41769231       0.00000000
Si      -1.16900298       1.56760299      -1.40983435       0.00000000
Si      -1.32199866      -1.31205361       1.59688121       0.00000000
Si       0.81454628       2.13757380       1.32089188       0.00000000
Si       1.27099371      -0.32483889       2.50589941       0.00000000
Si      -0.85975362       0.99797427       3.41124599       0.00000000
Si       0.18998223      -2.48923322      -2.77962401       0.00000000
Si      -2.52260424       0.23095962      -2.77763378       0.00000000
Si      -2.65157217      -2.67967961       0.04083393       0.00000000
Si       2.90190779      -2.43225404      -0.01962774       0.00000000
