10
Lattice="16.28999089631971 0.0 0.0 0.0 16.28999089631971 0.0 0.0 0.0 34.31420841018396" Properties=species:S:1:pos:R:3:initial_magmoms:R:1 pbc="T T T"
Si       2.07073593      -0.47304205      -0.99823519       0.00000000
Si      -2.08616256      -1.10907565       0.37663296       0.00000000
Si       1.19260719      -1.20051256       1.69779935       0.00000000
Si      -0.03839553       2.38342411       0.64610259       0.00000000
Si       0.81990828       1.24494859      -2.43232971       0.00000000
Si      -2.76306093       0.44496298      -1.42973661       0.00000000
Si       2.40456690       2.33018839       0.34986786       0.00000000
Si      -2.46925449       2.57747059      -0.24977326       0.00000000
Si      -0.21294288       1.99696015       2.96574438       0.00000000
Si       0.65402721      -3.45711823       1.34360790       0.00000000
