10
Lattice="16.28999089631971 0.0 0.0 0.0 16.28999089631971 0.0 0.0 0.0 34.31420841018396" Properties=species:S:1:pos:R:3:initial_magmoms:R:1 pbc="T T T"
Si      -1.32848208       1.77909280      -0.64304862       0.00000000
Si      -1.07559612      -0.61932462       1.95906788       0.00000000
Si       0.07706799      -1.41837991      -1.91099365       0.00000000
Si       2.14159743       1.02444226       0.20025783       0.00000000
Si      -0.14729418       3.34325860       0.64661730       0.00000000
Si       2.73668742       0.56618827      -1.99870081       0.00000000
Si       0.71395812      -1.77068457       2.92899384       0.00000000
Si      -2.81067660      -1.86585075       0.94865114       0.00000000
Si       2.40753168      -1.74442509      -1.90025330       0.00000000
Si      -1.11553920      -0.21786735      -3.60879300       0.00000000
