10
Lattice="16.28999089631971 0.0 0.0 0.0 16.28999089631971 0.0 0.0 0.0 34.31420841018396" Properties=species:S:1:pos:R:3:initial_magmoms:R:1 pbc="T T T"
Si       1.07559612       0.61932462      -1.95906788       0.00000000
Si       1.78955424      -1.15135995       0.96992596       0.00000000
Si      -1.73508048      -1.24652613      -1.01041675       0.00000000
Si      -0.82826505       1.88696029       1.24505743       0.00000000
Si      -0.25288596       2.39841742      -2.60211651       0.00000000
Si      -2.28781647      -1.12589868       2.56540028       0.00000000
Si      -3.46893921      -0.94473759       0.52109586       0.00000000
Si       3.38576247       0.47953525       1.69011297       0.00000000
Si       0.81681318       3.61212017       1.05286345       0.00000000
Si       1.22271111      -2.20315638       2.92010645       0.00000000
