10
Lattice="16.28999089631971 0.0 0.0 0.0 16.28999089631971 0.0 0.0 0.0 34.31420841018396" Properties=species:S:1:pos:R:3:initial_magmoms:R:1 pbc="T T T"
Si      -1.00496268      -1.67749533      -1.34779423       0.00000000
Si       1.25389017      -1.40838453       1.56809157       0.00000000
Si       1.76164947       1.10772000      -1.35366196       0.00000000
Si      -1.92614589       2.03346441       0.41029522       0.00000000
Si       1.18679166       0.41936976       3.13673217       0.00000000
Si      -2.20123675      -0.16744491      -2.74177541       0.00000000
Si       0.35725599       2.61438210       2.41098626       0.00000000
Si      -2.94258650      -2.31449949       0.00253925       0.00000000
Si       0.49518342       2.56388310      -2.72369181       0.00000000
Si      -3.56106858       1.10949561      -1.32607333       0.00000000
