10
Lattice="16.28999089631971 0.0 0.0 0.0 16.28999089631971 0.0 0.0 0.0 34.31420841018396" Properties=species:S:1:pos:R:3:initial_magmoms:R:1 pbc="T T T"
Si      -1.53314964      -1.17007812      -1.33887253       0.00000000
Si       1.23170096       1.53020115      -1.30579362       0.00000000
Si      -0.94856670       1.67844015       1.44040833       0.00000000
Si       1.10991915      -0.61053291       2.14601179       0.00000000
Si       1.85018303      -1.89379395       0.02281896       0.00000000
Si      -0.13336623      -2.46376476      -2.70790727       0.00000000
Si       0.17588313      -3.03339348       2.11317308       0.00000000
Si       2.59153279       0.25326063      -2.72149570       0.00000000
Si       2.86662365       2.45416995       0.43057493       0.00000000
Si       0.95265549       2.95264395       2.27952845       0.00000000
