10
Lattice="16.28999089631971 0.0 0.0 0.0 16.28999089631971 0.0 0.0 0.0 34.31420841018396" Properties=species:S:1:pos:R:3:initial_magmoms:R:1 pbc="T T T"
Si      -1.46320038      -1.72918350       0.68779438       0.00000000
Si       1.68360408      -0.10492389       1.67014209       0.00000000
Si      -1.25937990       2.01797262       0.25533217       0.00000000
Si       0.90487692       0.37991538      -2.20564992       0.00000000
Si       2.80609911       1.65411918      -1.36652980       0.00000000
Si      -0.78348384       2.24521812       2.63317088       0.00000000
Si       0.27407925       0.31618890       3.59712616       0.00000000
Si      -0.82720620       3.35345940      -1.62707773       0.00000000
Si       2.96336277      -1.90905768      -1.50004646       0.00000000
Si       3.30698633       1.60269165       1.12468312       0.00000000
