10
Lattice="16.28999089631971 0.0 0.0 0.0 16.28999089631971 0.0 0.0 0.0 34.31420841018396" Properties=species:S:1:pos:R:3:initial_magmoms:R:1 pbc="T T T"
Si      -1.45774323       1.77976395      -0.28010704       0.00000000
Si      -1.18118790      -1.56416580      -1.28966593       0.00000000
Si       2.26595529       0.07019361      -0.70049064       0.00000000
Si      -0.11148876      -0.35046306       2.36531402       0.00000000
Si       2.28889161      -2.31881634      -0.44635947       0.00000000
Si       0.14729418      -3.34325860      -0.64661730       0.00000000
Si       0.15351696       3.31912008      -1.03862304       0.00000000
Si       3.15014784       1.63224171       0.85366935       0.00000000
Si      -1.75656699      -2.07562293       2.55750801       0.00000000
Si      -2.53366515       2.20794660       1.77006512       0.00000000
