10
Lattice="16.28999089631971 0.0 0.0 0.0 16.28999089631971 0.0 0.0 0.0 34.31420841018396" Properties=species:S:1:pos:R:3:initial_magmoms:R:1 pbc="T T T"
Si      -1.61126019      -1.53935613       0.75851600       0.00000000
Si      -1.05756309       1.92902922      -0.96395528       0.00000000
Si       1.43348742       0.15760575       1.92739585       0.00000000
Si       1.40952483      -0.42111279      -1.92698408       0.00000000
Si       0.68404968       3.22740738      -0.16642400       0.00000000
Si      -0.15351696      -3.31912008       1.03862304       0.00000000
Si       1.92495672       2.41318431       1.63383763       0.00000000
Si      -0.27407925      -0.31618890      -3.59712616       0.00000000
Si      -3.10951665      -1.63030320      -1.02613266       0.00000000
Si      -3.05025363       2.02680180       0.29822495       0.00000000
