10
Lattice="16.28999089631971 0.0 0.0 0.0 16.28999089631971 0.0 0.0 0.0 34.31420841018396" Properties=species:S:1:pos:R:3:initial_magmoms:R:1 pbc="T T T"
Si       1.74161277       1.29837816       0.79753128       0.00000000
Si      -1.99269054       0.09777258       1.26218023       0.00000000
Si       1.05756309      -1.92902922       0.96395528       0.00000000
Si      -0.47589606      -0.22724550      -2.37783871       0.00000000
Si      -3.13885494      -1.43392725      -0.10122697       0.00000000
Si       2.46708792      -2.35014201      -0.96302880       0.00000000
Si       0.78348384      -2.24521812      -2.63317088       0.00000000
Si      -2.82177009      -0.56084841      -2.25413592       0.00000000
Si       0.76165524       3.32324145       1.36004441       0.00000000
Si       3.38662584       1.53826470      -0.82762486       0.00000000
