10
Lattice="16.28999089631971 0.0 0.0 0.0 16.28999089631971 0.0 0.0 0.0 34.31420841018396" Properties=species:S:1:pos:R:3:initial_magmoms:R:1 pbc="T T T"
Si      -1.90122219      -1.27420380      -0.83912012       0.00000000
Si       0.50088722      -0.05142753       2.49121292       0.00000000
Si      -1.31064453       2.19678795      -0.15499737       0.00000000
Si       1.91396816      -0.49847400      -1.84895353       0.00000000
Si      -2.80609911      -1.65411918       1.36652980       0.00000000
Si       0.15726366      -3.56317686      -0.13351666       0.00000000
Si      -1.12249503      -1.75904307       3.03667188       0.00000000
Si      -0.20295711       2.12936364       3.17207583       0.00000000
Si      -0.95265549      -2.95264395      -2.27952845       0.00000000
Si       0.27904547      -1.42244280      -3.58532207       0.00000000
