10
Lattice="16.28999089631971 0.0 0.0 0.0 16.28999089631971 0.0 0.0 0.0 34.31420841018396" Properties=species:S:1:pos:R:3:initial_magmoms:R:1 pbc="T T T"
Si       0.49146930       2.25557856      -0.29355822       0.00000000
Si      -0.72045783       0.10244781       2.26470471       0.00000000
Si      -1.43348742      -0.15760575      -1.92739585       0.00000000
Si       1.56314346      -1.84448412      -0.03510345       0.00000000
Si      -3.04474761      -1.69696188      -1.16887985       0.00000000
Si      -2.32969806      -1.67218479       2.40851563       0.00000000
Si      -0.74943774       3.06980163      -2.09381985       0.00000000
Si       0.67895091      -3.40653222      -1.58926345       0.00000000
Si      -0.02396259      -0.57871854      -3.85437993       0.00000000
Si      -0.18774225       3.60898434       1.50474751       0.00000000
