10
Lattice="16.28999089631971 0.0 0.0 0.0 16.28999089631971 0.0 0.0 0.0 34.31420841018396" Properties=species:S:1:pos:R:3:initial_magmoms:R:1 pbc="T T T"
Si       1.35639016       1.35588306      -1.35685319       0.00000000
Si      -1.35694071       1.35707971       1.35678456       0.00000000
Si       1.35765520      -1.35757602       1.35675024       0.00000000
Si      -1.35930276      -1.35814617      -1.35733359       0.00000000
Si      -2.71163340      -0.00109143      -2.71511326       0.00000000
Si       2.71324678      -0.00263898       2.71377500       0.00000000
Si      -2.71404432       2.71416065      -0.00075491       0.00000000
Si       0.00057015       2.71491162       2.71401520       0.00000000
Si      -2.71420722      -0.00032580       2.71504463       0.00000000
Si       2.71505823       2.71449459      -0.00058334       0.00000000
