10
Lattice="16.28999089631971 0.0 0.0 0.0 16.28999089631971 0.0 0.0 0.0 34.31420841018396" Properties=species:S:1:pos:R:3:initial_magmoms:R:1 pbc="T T T"
Si      -0.87469059      -0.38009457      -2.08662797       0.00000000
Si      -1.91094636      -0.75165318       1.17567166       0.00000000
Si       0.95792856       1.98677727       1.10116861       0.00000000
Si       2.00784838      -1.62210933      -0.15641836       0.00000000
Si      -0.45346377      -1.96289613       2.55486684       0.00000000
Si       2.28626077       0.76082445       2.57627549       0.00000000
Si       0.85225370      -3.38537151       1.12576505       0.00000000
Si       2.65868275       2.70599706      -0.44263333       0.00000000
Si      -0.14407365       1.19218365      -3.63934677       0.00000000
Si       3.69159907      -0.51091956       1.18097321       0.00000000
