10
Lattice="16.28999089631971 0.0 0.0 0.0 16.28999089631971 0.0 0.0 0.0 34.31420841018396" Properties=species:S:1:pos:R:3:initial_magmoms:R:1 pbc="T T T"
Si       0.90583803       1.65599253      -1.62615125       0.00000000
Si      -1.63492269      -0.92396880      -1.73636854       0.00000000
Si      -1.91396816       0.49847400       1.84895353       0.00000000
Si       1.92614589      -2.03346441      -0.41029522       0.00000000
Si       2.28340188       0.58091769       2.00069104       0.00000000
Si      -2.86662365      -2.45416995      -0.43057493       0.00000000
Si      -0.27509086      -2.20090932      -3.15207063       0.00000000
Si      -1.75670450      -3.06470286       1.71543687       0.00000000
Si       2.54420478       2.99294541      -0.44104077       0.00000000
Si       2.42132931       0.53041869      -3.13398703       0.00000000
