10
Lattice="16.28999089631971 0.0 0.0 0.0 16.28999089631971 0.0 0.0 0.0 34.31420841018396" Properties=species:S:1:pos:R:3:initial_magmoms:R:1 pbc="T T T"
Si      -1.36262755      -1.35334062       1.35822576       0.00000000
Si       1.35521397      -1.35923271      -1.36001010       0.00000000
Si      -1.35943308       1.35817875      -1.36042187       0.00000000
Si       1.36780614       1.33920090       1.37524561       0.00000000
Si      -0.15473871       2.54659941       2.74647646       0.00000000
Si      -0.00500103      -2.66023259       2.75629033       0.00000000
Si       2.71223613      -2.71577825       0.00106374       0.00000000
Si      -2.71235735       2.71676475      -0.00168140       0.00000000
Si       2.71414206       0.00022806      -2.71744663       0.00000000
Si       2.71777473       2.71518462       0.00044608       0.00000000
