10
Lattice="16.28999089631971 0.0 0.0 0.0 16.28999089631971 0.0 0.0 0.0 34.31420841018396" Properties=species:S:1:pos:R:3:initial_magmoms:R:1 pbc="T T T"
Si      -0.72003429      -0.91267983      -2.03929455       0.00000000
Si       2.06860194      -1.10082933       0.26919512       0.00000000
Si       0.19947105       2.33225559       0.29105328       0.00000000
Si      -1.76546296      -0.34054245       1.55213546       0.00000000
Si       3.00183975       0.60170373       1.59784201       0.00000000
Si      -3.60012977      -0.28272924       0.09501610       0.00000000
Si      -0.69470660       2.63782341       2.42536392       0.00000000
Si      -2.92091822      -1.63613502      -1.70328963       0.00000000
Si       0.59499225      -2.75993325      -2.59031241       0.00000000
Si       2.69252523      -2.06720100      -1.79274682       0.00000000
