10
Lattice="16.28999089631971 0.0 0.0 0.0 16.28999089631971 0.0 0.0 0.0 34.31420841018396" Properties=species:S:1:pos:R:3:initial_magmoms:R:1 pbc="T T T"
Si       1.52384805      -1.10728017       1.44556576       0.00000000
Si       1.27850436       1.60830444      -1.26877684       0.00000000
Si      -1.19933496       1.59573582       1.43116065       0.00000000
Si      -0.81254520      -1.87882344      -1.54661914       0.00000000
Si      -2.51329939      -2.59804323      -0.00281720       0.00000000
Si       2.82199815      -2.42401716      -0.09439158       0.00000000
Si       0.16327467      -2.46278736       2.82846001       0.00000000
Si      -2.55352103       0.25723539       2.82025891       0.00000000
Si      -2.53724569       2.97491631      -0.07208047       0.00000000
Si       1.16025525      -3.51466524      -1.51268237       0.00000000
