10
Lattice="16.28999089631971 0.0 0.0 0.0 16.28999089631971 0.0 0.0 0.0 34.31420841018396" Properties=species:S:1:pos:R:3:initial_magmoms:R:1 pbc="T T T"
Si       1.24168407       1.38080232      -1.46710480       0.00000000
Si      -1.33297079       1.29943701       1.54369416       0.00000000
Si      -1.42693346      -1.30784265      -1.45451148       0.00000000
Si       1.84353441      -1.19604438       1.18013492       0.00000000
Si       1.06739736      -0.65373399       3.31671030       0.00000000
Si      -0.38923000       3.48821747       1.05842235       0.00000000
Si      -1.23894735      -0.05181849       3.61435191       0.00000000
Si       3.10729632       2.24211229      -0.32183314       0.00000000
Si       2.57837631      -0.02894733      -2.87234105       0.00000000
Si      -2.98222237       2.50100274       0.14940415       0.00000000
