10
Lattice="16.28999089631971 0.0 0.0 0.0 16.28999089631971 0.0 0.0 0.0 34.31420841018396" Properties=species:S:1:pos:R:3:initial_magmoms:R:1 pbc="T T T"
Si       1.68463035       0.82052730       1.38327514       0.00000000
Si      -0.54255474       1.38927636      -1.81165396       0.00000000
Si      -1.89972351      -0.22009419       1.40952553       0.00000000
Si       0.76395213      -2.18144277      -0.65975965       0.00000000
Si       2.63551023      -1.12844088       2.20359107       0.00000000
Si       1.01662632       3.18764349      -1.57128280       0.00000000
Si       0.75409668       2.71389771       2.49714928       0.00000000
Si      -2.84889946       1.99119186      -1.51401235       0.00000000
Si      -3.55611419      -1.32054885       0.17383588       0.00000000
Si       3.04668612      -2.28555216       0.16944366       0.00000000
