10
Lattice="16.28999089631971 0.0 0.0 0.0 16.28999089631971 0.0 0.0 0.0 34.31420841018396" Properties=species:S:1:pos:R:3:initial_magmoms:R:1 pbc="T T T"
Si       1.60820842       1.10550456       1.25727330       0.00000000
Si       1.02305533      -1.92507075      -0.94961193       0.00000000
Si      -1.69821264      -0.56032713       1.62666596       0.00000000
Si      -0.56108919       1.39036779      -1.90196901       0.00000000
Si      -3.25830594      -1.24054866       0.00236768       0.00000000
Si       1.16344255      -3.35617983       0.90411127       0.00000000
Si       0.70887988       3.25579012       1.76217284       0.00000000
Si      -0.63333534      -3.02552541      -2.18530158       0.00000000
Si       3.67687552       1.00892115       0.13801182       0.00000000
Si       2.08294789      -0.11124441       3.23445909       0.00000000
