10
Lattice="16.28999089631971 0.0 0.0 0.0 16.28999089631971 0.0 0.0 0.0 34.31420841018396" Properties=species:S:1:pos:R:3:initial_magmoms:R:1 pbc="T T T"
Si      -1.60820842      -1.10550456      -1.25727330       0.00000000
Si       2.06866710      -0.09658341      -1.11926148       0.00000000
Si       0.47473947      -1.21674897       1.97718579       0.00000000
Si      -0.89932855       2.15028556       0.50489954       0.00000000
Si       3.48400746       0.27521955       0.73295190       0.00000000
Si      -3.30642107      -1.66583169       0.36939266       0.00000000
Si      -0.58515309      -3.03057531      -2.20688523       0.00000000
Si      -2.26666295       1.88949895       2.39019184       0.00000000
Si      -2.16929762       0.28486323      -3.15924231       0.00000000
Si       2.65561209      -0.69603912       2.72427516       0.00000000
