10
Lattice="10.86 0.0 0.0 0.0 10.86 0.0 0.0 0.0 10.86" Properties=species:S:1:pos:R:3:initial_magmoms:R:1 pbc="T T T"
Si      -1.32149910      -1.17195690       1.37048856       0.00000000
Si       1.22381340       1.45055934       1.21399596       0.00000000
Si       1.39350090      -1.17195690      -1.34451144       0.00000000
Si      -1.32149910       1.54304310      -1.34451144       0.00000000
Si       2.36309256      -0.12927744       2.73370092       0.00000000
Si       2.75029500      -2.43730980       0.01488906       0.00000000
Si      -2.67899910      -2.52945690       0.01298856       0.00000000
Si       0.03600090      -2.52945690      -2.70201144       0.00000000
Si      -2.67899910       0.18554310      -2.70201144       0.00000000
Si      -2.67899910       0.18554310       2.72798856       0.00000000
