10
Lattice="10.86 0.0 0.0 0.0 10.86 0.0 0.0 0.0 10.86" Properties=species:S:1:pos:R:3:initial_magmoms:R:1 pbc="T T T"
Si       1.28963586       1.38861390       1.31967462       0.00000000
Si       1.28963586      -1.32638610      -1.39532538       0.00000000
Si      -1.42536414       1.38861390      -1.39532538       0.00000000
Si       2.64713586       0.03111390       2.67717462       0.00000000
Si       2.64713586      -2.68388610      -0.03782538       0.00000000
Si       2.64713586       2.74611390      -0.03782538       0.00000000
Si       2.64713586       0.03111390      -2.75282538       0.00000000
Si      -0.06786414       2.74611390       2.67717462       0.00000000
Si      -0.29479470      -2.85694020      -2.57035566       0.00000000
Si      -0.06786414       2.74611390      -2.75282538       0.00000000
