10
Lattice="10.86 0.0 0.0 0.0 10.86 0.0 0.0 0.0 10.86" Properties=species:S:1:pos:R:3:initial_magmoms:R:1 pbc="T T T"
Si       0.93934656       1.46250534       1.21939338       0.00000000
Si       0.93934656      -1.25249466      -1.49560662       0.00000000
Si      -1.77565344      -1.25249466       1.21939338       0.00000000
Si       2.29684656       0.10500534       2.57689338       0.00000000
Si       2.29684656      -2.60999466      -0.13810662       0.00000000
Si       2.29684656       2.82000534      -0.13810662       0.00000000
Si       2.29684656       0.10500534      -2.85310662       0.00000000
Si      -0.41815344      -2.60999466       2.57689338       0.00000000
Si      -0.41815344      -2.60999466      -2.85310662       0.00000000
Si      -0.56609922       3.01532244       2.41074624       0.00000000
