10
Lattice="10.86 0.0 0.0 0.0 10.86 0.0 0.0 0.0 10.86" Properties=species:S:1:pos:R:3:initial_magmoms:R:1 pbc="T T T"
Si      -1.41064884      -1.46877156      -0.96371640       0.00000000
Si       1.12108866      -1.44505332       1.41720828       0.00000000
Si      -1.52790426       1.35318858       1.88292852       0.00000000
Si      -0.16817796       2.59047924      -1.82488182       0.00000000
Si      -2.73395070      -0.12545472      -2.29497864       0.00000000
Si      -0.01895070      -2.84045472      -2.29497864       0.00000000
Si      -2.73395070       2.58954528       0.42002136       0.00000000
Si      -1.50730284       1.31050878      -3.34163286       0.00000000
Si       2.69604930      -2.84045472       0.42002136       0.00000000
Si      -2.73395070      -2.84045472       0.42002136       0.00000000
