10
Lattice="10.86 0.0 0.0 0.0 10.86 0.0 0.0 0.0 10.86" Properties=species:S:1:pos:R:3:initial_magmoms:R:1 pbc="T T T"
Si       1.33886424       1.32484398       1.00274724       0.00000000
Si      -1.52536302      -1.38922206       1.47284406       0.00000000
Si      -1.37613576       1.32484398      -1.71225276       0.00000000
Si       1.33886424      -1.39015602      -1.71225276       0.00000000
Si      -0.01863576       2.68234398       2.36024724       0.00000000
Si       2.47232244      -2.64848250      -0.45866124       0.00000000
Si       2.73940242      -0.22423728       2.44897344       0.00000000
Si      -2.87153604      -0.05242122       2.42448414       0.00000000
Si       2.69636424       2.68234398      -0.35475276       0.00000000
Si      -2.73363576       2.68234398      -0.35475276       0.00000000
