10
Lattice="10.86 0.0 0.0 0.0 10.86 0.0 0.0 0.0 10.86" Properties=species:S:1:pos:R:3:initial_magmoms:R:1 pbc="T T T"
Si      -1.13345820       1.25832648      -1.25359152       0.00000000
Si       1.58154180      -1.45667352      -1.25359152       0.00000000
Si       1.58154180       1.25832648       1.46140848       0.00000000
Si      -2.49095820      -0.09917352      -2.61109152       0.00000000
Si      -2.47232244       2.64848250       0.45866124       0.00000000
Si       0.22404180       2.61582648      -2.61109152       0.00000000
Si      -2.58519042      -2.72534958       0.03299268       0.00000000
Si       0.26707998       2.42424522       2.90763468       0.00000000
Si       0.22404180      -2.81417352      -2.61109152       0.00000000
Si       2.93904180      -0.09917352      -2.61109152       0.00000000
