10
Lattice="10.86 0.0 0.0 0.0 10.86 0.0 0.0 0.0 10.86" Properties=species:S:1:pos:R:3:initial_magmoms:R:1 pbc="T T T"
Si      -1.16232408      -1.28869104       1.30454664       0.00000000
Si      -1.16232408       1.42630896      -1.41045336       0.00000000
Si       1.47641700       0.84753612       1.73910954       0.00000000
Si       1.55267592      -1.28869104      -1.41045336       0.00000000
Si      -2.51982408      -2.64619104      -0.05295336       0.00000000
Si       0.43359636       2.60991864       2.53129224       0.00000000
Si      -2.51982408       0.06880896       2.66204664       0.00000000
Si       0.23719326      -2.70452010       2.49208764       0.00000000
Si      -2.51982408       0.06880896      -2.76795336       0.00000000
Si      -2.51982408       2.78380896      -0.05295336       0.00000000
