10
Lattice="10.86 0.0 0.0 0.0 10.86 0.0 0.0 0.0 10.86" Properties=species:S:1:pos:R:3:initial_magmoms:R:1 pbc="T T T"
Si       1.24450170       1.31053050       1.29403416       0.00000000
Si      -1.47049830      -1.40446950       1.29403416       0.00000000
Si      -1.47049830       1.31053050      -1.42096584       0.00000000
Si       2.60200170      -0.04696950       2.65153416       0.00000000
Si       2.60200170       2.66803050      -0.06346584       0.00000000
Si       2.73360318      -0.05436516      -2.57752326       0.00000000
Si      -0.11299830       2.66803050       2.65153416       0.00000000
Si      -0.11299830      -2.76196950       2.65153416       0.00000000
Si      -0.11299830       2.66803050      -2.77846584       0.00000000
Si      -2.82799830      -0.04696950       2.65153416       0.00000000
