10
Lattice="16.28999089631971 0.0 0.0 0.0 16.28999089631971 0.0 0.0 0.0 34.64500226677339" Properties=species:S:1:pos:R:3:initial_magmoms:R:1 pbc="T T T"
Si      -1.35658060      -1.35468759      -1.35805020       0.00000000
Si       1.35730561      -1.35736214       1.35683763       0.00000000
Si      -1.35765033       1.35733330       1.35680298       0.00000000
Si       1.35779431       1.35831070      -1.35787698       0.00000000
Si      -2.71249744       0.00159805       2.71381383       0.00000000
Si       0.00018408      -2.71308877       2.71433351       0.00000000
Si       2.71519114       2.71427401      -0.00041574       0.00000000
Si      -0.00287844       2.71345951      -2.71675866       0.00000000
Si      -2.71541335      -2.71481551       0.00024252       0.00000000
Si      -2.71542964       2.71507222      -0.00017323       0.00000000
