10
Lattice="16.28999089631971 0.0 0.0 0.0 16.28999089631971 0.0 0.0 0.0 34.64500226677339" Properties=species:S:1:pos:R:3:initial_magmoms:R:1 pbc="T T T"
Si      -0.29520249      -0.18661824      -2.43745050       0.00000000
Si       0.48247233       1.79191629       1.63056794       0.00000000
Si      -2.37277112      -0.10924074       1.05015990       0.00000000
Si       0.60505621       2.47803221      -0.68673362       0.00000000
Si       0.22291562      -2.59768485       0.63078191       0.00000000
Si       2.04488859      -0.07811055      -2.77631345       0.00000000
Si      -1.39879202      -3.30511068      -1.03585150       0.00000000
Si      -3.24982472      -2.02258269      -0.06773102       0.00000000
Si       2.71105185       2.05293000      -1.86501080       0.00000000
Si      -0.76698191      -2.41041501      -3.09757674       0.00000000
