10
Lattice="16.28999089631971 0.0 0.0 0.0 16.28999089631971 0.0 0.0 0.0 34.64500226677339" Properties=species:S:1:pos:R:3:initial_magmoms:R:1 pbc="T T T"
Si      -1.35648459       1.35928647      -1.36428631       0.00000000
Si       1.36001952      -1.35808753      -1.36411308       0.00000000
Si      -1.36189287      -1.36971370       1.37066099       0.00000000
Si       1.36829484       1.37570679       1.37218537       0.00000000
Si       2.70892926      -2.71572938      -0.00578572       0.00000000
Si       2.71005327       2.71547784      -0.00582036       0.00000000
Si      -2.71663443       2.71336014      -0.00665184       0.00000000
Si      -2.71339272      -2.71719722      -0.00800300       0.00000000
Si      -2.71430496      -0.00066789      -2.72136645       0.00000000
Si       0.00096111       2.71479366      -2.72133180       0.00000000
