10
Lattice="16.28999089631971 0.0 0.0 0.0 16.28999089631971 0.0 0.0 0.0 34.64500226677339" Properties=species:S:1:pos:R:3:initial_magmoms:R:1 pbc="T T T"
Si       2.35431225      -0.07209954      -0.28817729       0.00000000
Si      -0.51192954      -0.45703224       2.32187470       0.00000000
Si      -0.75034998      -2.25450505      -0.58501584       0.00000000
Si      -1.48468689       1.87126488       0.62672844       0.00000000
Si       0.76976766       0.52769826      -2.71370990       0.00000000
Si      -0.89551017       1.76722065       2.98252062       0.00000000
Si       3.13562952       2.08363761       0.31946174       0.00000000
Si       2.62658331      -1.14486120      -2.55787659       0.00000000
Si       1.37003787      -3.58649504      -0.32438134       0.00000000
Si       3.19238388      -2.03482300       0.72352663       0.00000000
