10
Lattice="16.28999089631971 0.0 0.0 0.0 16.28999089631971 0.0 0.0 0.0 34.64500226677339" Properties=species:S:1:pos:R:3:initial_magmoms:R:1 pbc="T T T"
Si       0.57041064       1.89249075      -1.21787645       0.00000000
Si      -2.21511420      -0.48009888      -0.66979220       0.00000000
Si       0.40627260       0.84916512       2.26217421       0.00000000
Si       1.24211250      -1.44650313      -1.56155506       0.00000000
Si       3.09057138      -0.74977983      -0.22869179       0.00000000
Si       2.37754179      -0.61602264       2.19126297       0.00000000
Si      -2.24557650      -2.42655188       0.84066145       0.00000000
Si       2.94889725       1.48794489      -1.36719649       0.00000000
Si      -3.29185062       1.35731538       0.40874197       0.00000000
Si      -0.76023801       1.76406039      -3.20805971       0.00000000
