10
Lattice="16.28999089631971 0.0 0.0 0.0 16.28999089631971 0.0 0.0 0.0 34.64500226677339" Properties=species:S:1:pos:R:3:initial_magmoms:R:1 pbc="T T T"
Si      -0.91580751      -2.01287385      -0.98374008       0.00000000
Si       1.21305114      -1.22662071       1.70720273       0.00000000
Si       1.92438657       1.10359863      -1.19357785       0.00000000
Si      -1.50612453       1.48429593       1.67811824       0.00000000
Si      -1.39391901       0.94063347      -3.02567589       0.00000000
Si       2.71808424      -2.47226814       0.27809212       0.00000000
Si       1.05546168      -3.47806161      -1.05465132       0.00000000
Si      -2.84811102      -2.58851358       0.33371124       0.00000000
Si       2.64572406       2.91089268       0.24337088       0.00000000
Si       2.55256155       0.12662217       3.08724559       0.00000000
