10
Lattice="16.28999089631971 0.0 0.0 0.0 16.28999089631971 0.0 0.0 0.0 34.64500226677339" Properties=species:S:1:pos:R:3:initial_magmoms:R:1 pbc="T T T"
Si      -1.40089113       1.03451274      -1.58369323       0.00000000
Si       2.14159743       1.03162941       0.08851803       0.00000000
Si      -1.31743746       0.55793250       1.93274182       0.00000000
Si       0.77919957      -2.23544412      -0.46555980       0.00000000
Si       1.94491197      -2.30814639       1.54274281       0.00000000
Si       0.11878668       1.97675892      -3.08143216       0.00000000
Si       3.24980613      -0.31509747       1.66372323       0.00000000
Si      -1.17374337      -3.35303586      -1.10399826       0.00000000
Si       1.72398699       3.36007314       0.30563838       0.00000000
Si      -1.92932244       2.86379829       1.58514832       0.00000000
