10
Lattice="16.28999089631971 0.0 0.0 0.0 16.28999089631971 0.0 0.0 0.0 34.64500226677339" Properties=species:S:1:pos:R:3:initial_magmoms:R:1 pbc="T T T"
Si      -1.35638685       1.35796698       1.36414773       0.00000000
Si       1.36045935      -1.35641943       1.36362805       0.00000000
Si       1.35487188       1.35399222      -1.38726981       0.00000000
Si      -1.34767170      -1.35892809      -1.40566286       0.00000000
Si      -2.71446786       2.71085148       0.00374166       0.00000000
Si       2.71101438      -2.71660185       0.00346450       0.00000000
Si      -2.71593396      -2.71423980       0.00027716       0.00000000
Si       2.71744893       2.71472850       0.00041574       0.00000000
Si      -2.71464705       0.00004887       2.72074284       0.00000000
Si       0.00109143       2.71480995       2.72067355       0.00000000
