10
Lattice="16.28999089631971 0.0 0.0 0.0 16.28999089631971 0.0 0.0 0.0 34.64500226677339" Properties=species:S:1:pos:R:3:initial_magmoms:R:1 pbc="T T T"
Si       0.82753200       1.85800482      -1.39141336       0.00000000
Si      -1.86408588      -0.81311535      -1.65398798       0.00000000
Si       1.80142965      -1.92324627      -0.16872126       0.00000000
Si       0.56751102       1.34105796       2.53113064       0.00000000
Si      -1.21568686      -1.91031201       2.28082035       0.00000000
Si       1.99488969       0.41252796      -2.99246374       0.00000000
Si      -3.23467991      -1.21842684       1.40530601       0.00000000
Si       3.36943989      -0.95312790      -1.60638572       0.00000000
Si      -0.72061096      -2.33448569      -3.00427770       0.00000000
Si      -0.15936507      -0.55861668       3.83208584       0.00000000
