10
Lattice="16.28999089631971 0.0 0.0 0.0 16.28999089631971 0.0 0.0 0.0 34.64500226677339" Properties=species:S:1:pos:R:3:initial_magmoms:R:1 pbc="T T T"
Si       1.49703471       1.38857589      -1.08833871       0.00000000
Si      -0.96935274      -1.66703715      -1.29142783       0.00000000
Si      -1.58760711       1.33802802       1.05750464       0.00000000
Si       0.97140528      -1.29073815       1.68558424       0.00000000
Si      -2.16228573      -0.04727358       2.89181996       0.00000000
Si      -2.93665531      -2.13122070      -0.12454885       0.00000000
Si       3.54017538       1.15033464       0.06388542       0.00000000
Si      -3.21820842       1.87893747      -0.55310777       0.00000000
Si       0.64712025      -3.39115446      -1.56682110       0.00000000
Si       1.53590265       0.04452057       3.54709589       0.00000000
