10
Lattice="16.28999089631971 0.0 0.0 0.0 16.28999089631971 0.0 0.0 0.0 34.64500226677339" Properties=species:S:1:pos:R:3:initial_magmoms:R:1 pbc="T T T"
Si      -1.82946474       0.69431238       1.30455829       0.00000000
Si       1.72499697      -1.12751235       1.19282809       0.00000000
Si      -0.04380381       1.90578339      -1.53508626       0.00000000
Si       0.26586909      -2.72544732      -0.51870526       0.00000000
Si      -2.24710776      -2.72562651      -0.13837222       0.00000000
Si      -2.66514174      -1.41219639       1.86968788       0.00000000
Si      -0.46669221       0.61010937      -3.68713107       0.00000000
Si      -0.95138487       1.70364078       3.25566197       0.00000000
Si       3.69787887      -0.84818772      -0.17364085       0.00000000
Si       1.77854220       3.45745543      -0.48717829       0.00000000
