10
Lattice="16.28999089631971 0.0 0.0 0.0 16.28999089631971 0.0 0.0 0.0 34.64500226677339" Properties=species:S:1:pos:R:3:initial_magmoms:R:1 pbc="T T T"
Si      -1.46528550       1.16020638      -1.46929537       0.00000000
Si       1.23036741      -1.55569826      -1.46905285       0.00000000
Si       1.15035093       1.77186330       1.30587480       0.00000000
Si      -1.88876034      -0.90158634       1.34010408       0.00000000
Si      -0.12352707       2.49997743      -2.84730110       0.00000000
Si      -2.81171916       2.57324985      -0.05903512       0.00000000
Si       2.76066630       2.65926105      -0.10663738       0.00000000
Si       2.59687035      -0.21784617      -2.84359409       0.00000000
Si       2.62246194      -2.88936756      -0.10254926       0.00000000
Si      -2.77145028      -2.86355280      -0.01704535       0.00000000
