10
Lattice="16.28999089631971 0.0 0.0 0.0 16.28999089631971 0.0 0.0 0.0 34.64500226677339" Properties=species:S:1:pos:R:3:initial_magmoms:R:1 pbc="T T T"
Si       1.34907264      -1.35690813       1.35624866       0.00000000
Si       1.35474156       1.35698958      -1.35669905       0.00000000
Si      -1.35988920      -1.35782037      -1.35690692       0.00000000
Si      -1.35925389       1.35565380       1.36362805       0.00000000
Si       2.71171485       0.00004887      -2.71409099       0.00000000
Si       2.71520091      -2.71262709       0.00079684       0.00000000
Si      -0.00241092       2.71381626      -2.71433351       0.00000000
Si      -0.00272043      -2.71549413      -2.71454138       0.00000000
Si       2.70249471       0.02204037       2.72871119       0.00000000
Si       2.71479366       2.71658556       0.00045039       0.00000000
