10
Lattice="16.28999089631971 0.0 0.0 0.0 16.28999089631971 0.0 0.0 0.0 34.64500226677339" Properties=species:S:1:pos:R:3:initial_magmoms:R:1 pbc="T T T"
Si       2.21511420       0.48009888       0.66979220       0.00000000
Si      -1.07673642       1.83741426       1.07853417       0.00000000
Si      -0.39174192       0.64938456      -2.33140209       0.00000000
Si      -0.03046230      -1.94645300       1.51045365       0.00000000
Si      -0.92621682      -0.38302677       3.00080007       0.00000000
Si      -1.93745930      -2.64545690      -1.13985586       0.00000000
Si      -2.80062078       1.13568993      -2.04135396       0.00000000
Si       1.45487619       2.24415927      -2.53826751       0.00000000
Si       3.45722670      -0.96640425      -0.89176286       0.00000000
Si       2.78552484       2.37258963      -0.54808424       0.00000000
