10
Lattice="16.28999089631971 0.0 0.0 0.0 16.28999089631971 0.0 0.0 0.0 34.64500226677339" Properties=species:S:1:pos:R:3:initial_magmoms:R:1 pbc="T T T"
Si       1.48224339      -1.78940763       0.38895966       0.00000000
Si       1.32737436       1.98278622      -0.23177519       0.00000000
Si      -1.97288190      -0.27932463       1.36646894       0.00000000
Si       1.24447455      -0.13053177      -2.19105510       0.00000000
Si      -0.98914509      -1.52471142      -2.27517322       0.00000000
Si       0.46545417      -2.59307478       2.32627462       0.00000000
Si      -1.26110664       0.71416989       3.37092596       0.00000000
Si      -1.83255984      -2.68069869       1.71066723       0.00000000
Si      -3.69787887       0.84818772       0.17364085       0.00000000
Si       3.45629817      -0.89261055       1.31443212       0.00000000
