10
Lattice="16.28999089631971 0.0 0.0 0.0 16.28999089631971 0.0 0.0 0.0 34.64500226677339" Properties=species:S:1:pos:R:3:initial_magmoms:R:1 pbc="T T T"
Si       1.36047564      -1.35389448      -1.36248477       0.00000000
Si      -1.36650294      -1.33785209       1.37454123       0.00000000
Si      -1.35563751       1.36197432      -1.36196509       0.00000000
Si       1.37262798       1.36295172       1.36806261       0.00000000
Si       0.02559159      -2.67152139       2.74104482       0.00000000
Si       2.71391912      -2.71355396      -0.00304876       0.00000000
Si       2.71402199       2.71717200      -0.00249444       0.00000000
Si       0.00019548      -2.71299223      -2.71956491       0.00000000
Si      -2.71510317       0.00203625      -2.71928775       0.00000000
Si       2.71532275       0.00184077      -2.71949562       0.00000000
