10
Lattice="16.28999089631971 0.0 0.0 0.0 16.28999089631971 0.0 0.0 0.0 34.64500226677339" Properties=species:S:1:pos:R:3:initial_magmoms:R:1 pbc="T T T"
Si       0.09852192      -1.14883596      -1.97026238       0.00000000
Si      -2.02043241      -0.16881327       1.05518342       0.00000000
Si       2.01899304      -0.69188517       0.87551434       0.00000000
Si      -1.22015358       2.03095575       0.06513264       0.00000000
Si       1.37059403       0.40531149      -3.05929399       0.00000000
Si       1.58418851      -2.76437132       1.84276870       0.00000000
Si       3.23467991       1.21842684      -1.40530601       0.00000000
Si      -1.85559390      -0.15936507       3.37269286       0.00000000
Si      -0.80418843       3.22255296       2.07509822       0.00000000
Si       3.07531484       0.65981016       2.42677983       0.00000000
