10
Lattice="16.28999089631971 0.0 0.0 0.0 16.28999089631971 0.0 0.0 0.0 34.64500226677339" Properties=species:S:1:pos:R:3:initial_magmoms:R:1 pbc="T T T"
Si       1.35597960       1.35506736      -1.35725337       0.00000000
Si      -1.35946566      -1.35993807      -1.35732266       0.00000000
Si      -1.36475991       1.35584928       1.35825807       0.00000000
Si       1.35563751      -1.36197432       1.36196509       0.00000000
Si      -0.00200367       2.71280628      -2.71467996       0.00000000
Si       2.71318095      -0.00239463      -2.71450673       0.00000000
Si      -2.71349046       2.71454931      -0.00076219       0.00000000
Si       2.71454931       2.71479366       0.00152438       0.00000000
Si      -2.71715571      -0.00206883      -2.71443744       0.00000000
Si       2.71611315      -2.71586880      -0.00051968       0.00000000
