10
Lattice="16.28999089631971 0.0 0.0 0.0 16.28999089631971 0.0 0.0 0.0 34.64500226677339" Properties=species:S:1:pos:R:3:initial_magmoms:R:1 pbc="T T T"
Si       1.35677781       1.35562122       1.35579828       0.00000000
Si      -1.35892809      -1.35876519       1.35593686       0.00000000
Si      -1.36112724       1.35492075      -1.36238083       0.00000000
Si       1.35900954      -1.35806472      -1.36387057       0.00000000
Si       2.71352231      -0.00164529       2.71253197       0.00000000
Si      -0.00107514       2.71345788       2.71336345       0.00000000
Si      -2.71399545       2.71521720      -0.00048503       0.00000000
Si      -2.71614573      -0.00162900       2.71353667       0.00000000
Si      -0.00094482      -2.71650411       2.71336345       0.00000000
Si      -2.71477737      -2.71575477      -0.00055432       0.00000000
