10
Lattice="16.28999089631971 0.0 0.0 0.0 16.28999089631971 0.0 0.0 0.0 34.64500226677339" Properties=species:S:1:pos:R:3:initial_magmoms:R:1 pbc="T T T"
Si       1.35559472      -1.35527913       1.35811949       0.00000000
Si       1.35739132       1.35697329      -1.35690692       0.00000000
Si      -1.35755973      -1.35785295      -1.35680298       0.00000000
Si      -1.35736425       1.35555606       1.35995568       0.00000000
Si      -2.71215468      -2.71248048       0.00086613       0.00000000
Si      -0.00021177       2.71482624      -2.71364061       0.00000000
Si      -2.71256193       2.71673217       0.00051968       0.00000000
Si       2.71613663      -2.71352304       0.00100471       0.00000000
Si      -2.71564074       0.00019548      -2.71402170       0.00000000
Si       2.71573426      -0.00125433      -2.71416028       0.00000000
