10
Lattice="16.28999089631971 0.0 0.0 0.0 16.28999089631971 0.0 0.0 0.0 34.64500226677339" Properties=species:S:1:pos:R:3:initial_magmoms:R:1 pbc="T T T"
Si      -1.44519993       1.20982572       1.39244924       0.00000000
Si      -1.66146597      -0.86594382      -1.44933087       0.00000000
Si       0.99953811       1.67599895      -1.34993430       0.00000000
Si       1.26736200      -1.51309665       1.35244810       0.00000000
Si       2.61526895       2.59782724       0.08592312       0.00000000
Si      -2.53154745       2.72117512      -0.04133844       0.00000000
Si      -0.24610932      -0.71446311      -3.66879489       0.00000000
Si      -0.09984141       2.55952620       2.74210842       0.00000000
Si       2.62092483      -0.15915330       2.73639199       0.00000000
Si      -3.46836906       0.96567120      -1.23137900       0.00000000
