10
Lattice="16.28999089631971 0.0 0.0 0.0 16.28999089631971 0.0 0.0 0.0 34.64500226677339" Properties=species:S:1:pos:R:3:initial_magmoms:R:1 pbc="T T T"
Si       1.35658233       1.35430173       1.35763446       0.00000000
Si      -1.36028016       1.35228177      -1.35853523       0.00000000
Si      -1.35884664      -1.36032903       1.35725337       0.00000000
Si       1.35477414      -1.36391283      -1.36407844       0.00000000
Si      -2.71322982       2.71155195      -0.00038110       0.00000000
Si       0.00760743       2.72057661      -2.70511100       0.00000000
Si      -0.00078192       2.71161754       2.71412564       0.00000000
Si       2.71418542      -0.00355122       2.71436815       0.00000000
Si      -2.70648576       0.00912240      -2.72309870       0.00000000
Si       2.71541508       2.71442965      -0.00065826       0.00000000
