10
Lattice="16.28999089631971 0.0 0.0 0.0 16.28999089631971 0.0 0.0 0.0 34.64500226677339" Properties=species:S:1:pos:R:3:initial_magmoms:R:1 pbc="T T T"
Si       1.16735769      -1.44547686      -1.60105038       0.00000000
Si      -0.82753200      -1.85800482       1.39141336       0.00000000
Si      -1.54503808       1.24566372      -1.58947895       0.00000000
Si       1.40600619       1.79870922       1.66355000       0.00000000
Si       2.54190789      -2.81113272      -0.21497236       0.00000000
Si      -2.69161788      -2.67112017      -0.26257462       0.00000000
Si       2.67639813       2.81163771      -0.16806300       0.00000000
Si       2.51307459      -0.11186343      -2.98477255       0.00000000
Si      -2.77891631       2.77431732      -0.23115158       0.00000000
Si      -0.20023668       2.59882515      -2.98006083       0.00000000
