10
Lattice="16.28999089631971 0.0 0.0 0.0 16.28999089631971 0.0 0.0 0.0 34.64500226677339" Properties=species:S:1:pos:R:3:initial_magmoms:R:1 pbc="T T T"
Si       2.32327980       0.02176344       0.46552516       0.00000000
Si      -0.72687609      -1.89967464       1.30095521       0.00000000
Si      -0.93273282       1.85497488       1.45470981       0.00000000
Si      -0.56751102      -1.34105796      -2.53113064       0.00000000
Si       1.66602717       2.31565608      -2.25899399       0.00000000
Si      -1.78319788      -3.25136997      -0.25031028       0.00000000
Si       3.15954324       2.11950819      -0.30782102       0.00000000
Si      -1.03973857       0.90065781       3.60477986       0.00000000
Si       0.26002098       0.51694686      -3.92254399       0.00000000
Si      -2.03467313      -1.20878316       3.21280608       0.00000000
