10
Lattice="16.28999089631971 0.0 0.0 0.0 16.28999089631971 0.0 0.0 0.0 34.64500226677339" Properties=species:S:1:pos:R:3:initial_magmoms:R:1 pbc="T T T"
Si       1.22945517       1.40879178       1.39851559       0.00000000
Si       1.30337919      -1.93595247      -0.29805112       0.00000000
Si       0.27637614       1.06137495      -2.15582112       0.00000000
Si      -2.13630481      -1.00823697       0.60247693       0.00000000
Si      -0.19453518      -2.99651292      -1.90287781       0.00000000
Si      -2.41015600      -2.19392091      -1.43277951       0.00000000
Si       2.74913298       2.35103796      -0.09922334       0.00000000
Si      -1.93485778       1.29492468      -2.88714288       0.00000000
Si       1.18869759       3.19088520      -1.66296104       0.00000000
Si       1.45660293      -2.97875682       1.87821056       0.00000000
