10
Lattice="16.28999089631971 0.0 0.0 0.0 16.28999089631971 0.0 0.0 0.0 34.64500226677339" Properties=species:S:1:pos:R:3:initial_magmoms:R:1 pbc="T T T"
Si       1.35658060       1.35468759       1.35805020       0.00000000
Si      -1.36244913       1.35584744      -1.35479357       0.00000000
Si      -1.35883275      -1.36012792       1.35829272       0.00000000
Si       1.35831712      -1.36283206      -1.36051000       0.00000000
Si      -2.70780765       0.00614696      -2.70445275       0.00000000
Si      -0.00106973       2.71202089       2.71485318       0.00000000
Si       2.71437491       2.71299829       0.00017323       0.00000000
Si      -2.71520331       2.71241185       0.00155903       0.00000000
Si       2.71388621      -0.00267455       2.71488783       0.00000000
Si      -2.71541508      -2.71442965       0.00065826       0.00000000
