10
Lattice="16.28999089631971 0.0 0.0 0.0 16.28999089631971 0.0 0.0 0.0 34.64500226677339" Properties=species:S:1:pos:R:3:initial_magmoms:R:1 pbc="T T T"
Si       1.35739683       1.35596331       1.35746124       0.00000000
Si      -1.35779431      -1.35831070       1.35787698       0.00000000
Si      -1.36067275       1.35514881      -1.35888168       0.00000000
Si       1.35967743      -1.35805820      -1.35777304       0.00000000
Si      -2.71467465       0.01819593      -2.70473684       0.00000000
Si      -2.71437491      -2.71299829      -0.00017323       0.00000000
Si      -0.00068418       2.71386513       2.71523428       0.00000000
Si      -2.71415764       2.71495656       0.00090077       0.00000000
Si       2.71446786      -0.00114030       2.71492247       0.00000000
Si       2.71538010       2.71453302       0.00003465       0.00000000
