10
Lattice="10.86 0.0 0.0 0.0 10.86 0.0 0.0 0.0 10.86" Properties=species:S:1:pos:R:3:initial_magmoms:R:1 pbc="T T T"
Si      -1.23466254      -1.40503422       1.27955778       0.00000000
Si      -1.23466254       1.30996578      -1.43544222       0.00000000
Si       1.48033746       1.30996578       1.27955778       0.00000000
Si       1.11067392      -2.23395630      -0.24522966       0.00000000
Si      -2.59216254      -0.04753422       2.63705778       0.00000000
Si      -2.59216254       2.66746578      -0.07794222       0.00000000
Si       0.12283746       2.66746578       2.63705778       0.00000000
Si      -2.59216254      -2.76253422      -0.07794222       0.00000000
Si      -2.59216254      -0.04753422      -2.79294222       0.00000000
Si       0.10938192      -3.00151938       2.39522730       0.00000000
