10
Lattice="16.28999089631971 0.0 0.0 0.0 16.28999089631971 0.0 0.0 0.0 34.529650657227435" Properties=species:S:1:pos:R:3:initial_magmoms:R:1 pbc="T T T"
Si      -0.09114581       1.16361099      -2.01756862       0.00000000
Si       1.01379512      -2.09249937      -0.27603018       0.00000000
Si      -1.96827576      -0.35248302       1.25014670       0.00000000
Si       1.27836101       1.23810516       1.55618317       0.00000000
Si       2.32880537       1.16771607      -2.14560463       0.00000000
Si      -1.86735921       2.69285103      -1.31968946       0.00000000
Si      -2.09949171       1.70574219       2.46597091       0.00000000
Si       2.72245322      -1.23900111      -2.20903564       0.00000000
Si      -3.63848946      -0.73487448      -0.31373658       0.00000000
Si       1.11524924       0.10182879       3.62471757       0.00000000
