10
Lattice="16.28999089631971 0.0 0.0 0.0 16.28999089631971 0.0 0.0 0.0 34.529650657227435" Properties=species:S:1:pos:R:3:initial_magmoms:R:1 pbc="T T T"
Si      -1.38916233       1.23565026       1.41439053       0.00000000
Si       1.04049117       1.43991057      -1.54137826       0.00000000
Si      -1.65954375      -0.99878225      -1.38036641       0.00000000
Si       1.32688566      -1.49673996       1.38674953       0.00000000
Si      -0.29677122      -1.30214441      -3.33263942       0.00000000
Si       1.89195318      -0.25770128      -3.13050273       0.00000000
Si       2.66041764       2.52785451      -0.17672630       0.00000000
Si      -2.78228313       2.51446413      -0.06414577       0.00000000
Si      -0.03658734       2.58024315       2.77985252       0.00000000
Si       2.68024257      -0.13482093       2.77484571       0.00000000
