10
Lattice="16.28999089631971 0.0 0.0 0.0 16.28999089631971 0.0 0.0 0.0 34.529650657227435" Properties=species:S:1:pos:R:3:initial_magmoms:R:1 pbc="T T T"
Si      -0.19701126      -2.37295520      -0.22554780       0.00000000
Si      -2.10419559       1.01514393       0.76369271       0.00000000
Si       2.29568454       0.81976167       0.41684218       0.00000000
Si      -0.19300392       0.75135996      -2.41220821       0.00000000
Si       0.08734698      -0.25904358       2.68934334       0.00000000
Si       0.71640162       2.04182118       2.95332267       0.00000000
Si      -0.75075723       3.03886692      -2.00776219       0.00000000
Si       1.96734330       3.01052232       1.13954817       0.00000000
Si       1.95510951      -3.23163368       0.08031601       0.00000000
Si      -3.72962156      -0.61524886       0.36197453       0.00000000
