10
Lattice="16.28999089631971 0.0 0.0 0.0 16.28999089631971 0.0 0.0 0.0 34.529650657227435" Properties=species:S:1:pos:R:3:initial_magmoms:R:1 pbc="T T T"
Si      -0.32834124       2.19076065       0.72270599       0.00000000
Si       1.66726521      -0.52900146      -1.54799963       0.00000000
Si       1.28062206      -0.89625951       1.75258793       0.00000000
Si      -2.29568454      -0.81976167      -0.41684218       0.00000000
Si      -1.57928292       1.22205951       2.53648050       0.00000000
Si      -2.20833756      -1.07880525       2.27250117       0.00000000
Si       1.57138227      -2.84889261      -1.01555212       0.00000000
Si      -1.00478349       2.99692017      -1.43477685       0.00000000
Si      -0.29747169      -2.29434224       2.78985921       0.00000000
Si       1.92265983       0.96907581       3.06361044       0.00000000
