10
Lattice="16.28999089631971 0.0 0.0 0.0 16.28999089631971 0.0 0.0 0.0 34.529650657227435" Properties=species:S:1:pos:R:3:initial_magmoms:R:1 pbc="T T T"
Si       1.65954375       0.99878225       1.38036641       0.00000000
Si       1.36277253      -0.30336215      -1.95227301       0.00000000
Si      -1.02788271      -1.79954883       1.30149029       0.00000000
Si      -1.99008414       1.64082491       0.04640788       0.00000000
Si       0.31265397       1.64465306      -3.14831172       0.00000000
Si       0.27038142       2.23443251       2.79475694       0.00000000
Si       2.70003492       2.43869282      -0.16101185       0.00000000
Si      -2.44630188      -0.50545837       2.78439113       0.00000000
Si      -1.12273938       3.51324638       1.31622065       0.00000000
Si       1.12511772      -2.44034856      -2.86872498       0.00000000
