10
Lattice="16.28999089631971 0.0 0.0 0.0 16.28999089631971 0.0 0.0 0.0 34.529650657227435" Properties=species:S:1:pos:R:3:initial_magmoms:R:1 pbc="T T T"
Si       1.44710586      -1.27839033       1.42406574       0.00000000
Si      -1.66573395      -0.87164532      -1.49165209       0.00000000
Si      -1.25488386       1.44590040       1.45101270       0.00000000
Si       1.34418564       1.19764080      -1.62417696       0.00000000
Si      -0.47226339       0.97192656      -3.26188468       0.00000000
Si      -3.44004075       0.73813248      -1.20146194       0.00000000
Si      -2.62378143       2.66424579      -0.01395689       0.00000000
Si       2.65802301       2.63301786      -0.06114859       0.00000000
Si      -2.66276340      -2.68757307      -0.02954359       0.00000000
Si       0.08293239      -2.62179405       2.81445470       0.00000000
