10
Lattice="16.28999089631971 0.0 0.0 0.0 16.28999089631971 0.0 0.0 0.0 34.529650657227435" Properties=species:S:1:pos:R:3:initial_magmoms:R:1 pbc="T T T"
Si      -1.34939844       1.34933328       1.35470254       0.00000000
Si      -1.35438318      -1.35856971      -1.35532408       0.00000000
Si       1.35931905       1.35514881      -1.35535861       0.00000000
Si       1.35923760      -1.35731538       1.36119412       0.00000000
Si      -0.00340461       2.69221572       2.70498528       0.00000000
Si      -0.02381598      -2.71267107       2.69759594       0.00000000
Si      -2.71243161      -0.00146610      -2.71202934       0.00000000
Si       0.00223173       2.71360449      -2.71151139       0.00000000
Si      -2.71334385       2.71186146       0.00324579       0.00000000
Si       0.00250866      -2.71622392      -2.71144233       0.00000000
