10
Lattice="16.28999089631971 0.0 0.0 0.0 16.28999089631971 0.0 0.0 0.0 34.529650657227435" Properties=species:S:1:pos:R:3:initial_magmoms:R:1 pbc="T T T"
Si       2.09774475       0.51676767      -0.93295715       0.00000000
Si      -1.05759567      -1.85803740      -0.99369484       0.00000000
Si      -1.29158523       1.83006747      -0.89093454       0.00000000
Si       0.64573560      -0.39545604       2.30682366       0.00000000
Si       1.16393679      -2.65862574       1.67154679       0.00000000
Si       2.40819957       2.33085465       0.71359016       0.00000000
Si      -0.92018952      -3.33166338       0.84086652       0.00000000
Si      -3.52520487       0.93338442      -0.65813551       0.00000000
Si       1.60505370       1.29064041      -3.14693053       0.00000000
Si       2.65282650       0.91702926       2.55609335       0.00000000
