10
Lattice="16.28999089631971 0.0 0.0 0.0 16.28999089631971 0.0 0.0 0.0 34.529650657227435" Properties=species:S:1:pos:R:3:initial_magmoms:R:1 pbc="T T T"
Si       1.36889757      -1.21834539       1.46496959       0.00000000
Si       1.10760597       1.49535684      -1.50089913       0.00000000
Si      -0.81625932      -1.92611331      -1.18750505       0.00000000
Si      -1.36269108       1.49097483       1.44178292       0.00000000
Si       2.62378143      -2.66424579       0.01395689       0.00000000
Si       2.66258421       2.68405443      -0.04498180       0.00000000
Si      -0.00716760      -2.56883526       2.82281778       0.00000000
Si      -2.77212143      -2.65267989       0.02906362       0.00000000
Si      -2.31782265      -1.28581857      -2.81509837       0.00000000
Si       2.71070487       0.14678919       2.83200268       0.00000000
