10
Lattice="16.28999089631971 0.0 0.0 0.0 16.28999089631971 0.0 0.0 0.0 34.529650657227435" Properties=species:S:1:pos:R:3:initial_magmoms:R:1 pbc="T T T"
Si      -0.32156460       1.74550608      -1.54454667       0.00000000
Si       2.03457213       0.40526262       1.15912649       0.00000000
Si      -1.79836713       0.26107983       1.57641755       0.00000000
Si       0.34023294      -1.87488126      -1.50259312       0.00000000
Si       3.23143101       1.07577531      -0.72073780       0.00000000
Si       1.82397501       1.75941774      -2.54521650       0.00000000
Si       1.49804469       2.33124561       2.52525835       0.00000000
Si      -1.64089170      -3.09361761      -1.34821096       0.00000000
Si      -0.38669202       3.48806367       1.69730593       0.00000000
Si      -0.45963864       3.88159749      -0.57574772       0.00000000
