10
Lattice="16.28999089631971 0.0 0.0 0.0 16.28999089631971 0.0 0.0 0.0 34.529650657227435" Properties=species:S:1:pos:R:3:initial_magmoms:R:1 pbc="T T T"
Si      -1.10760597      -1.49535684       1.50089913       0.00000000
Si       1.55497824       1.18869759       1.45591733       0.00000000
Si       0.57972852      -0.88780500      -2.21241954       0.00000000
Si      -2.26696527       1.21803588      -1.88386973       0.00000000
Si      -2.48655447       2.81973384       0.03863870       0.00000000
Si       1.04391207      -3.18767607      -1.74702865       0.00000000
Si      -2.47029705      -0.00438201       2.94268205       0.00000000
Si      -1.47815460      -0.53572923      -3.56380724       0.00000000
Si      -1.92386529      -3.42147015       0.31339409       0.00000000
Si       0.25523172       2.71774215       2.93453650       0.00000000
