10
Lattice="16.28999089631971 0.0 0.0 0.0 16.28999089631971 0.0 0.0 0.0 34.529650657227435" Properties=species:S:1:pos:R:3:initial_magmoms:R:1 pbc="T T T"
Si       1.34516304       1.36071999       1.39014725       0.00000000
Si      -1.36879983      -1.35439947       1.38980195       0.00000000
Si      -1.30696299       1.41227784      -1.46395442       0.00000000
Si       1.29974652      -1.52904456      -1.47861917       0.00000000
Si       2.70734913       2.71386896       0.00167124       0.00000000
Si      -2.72538216       2.70636830       0.01894643       0.00000000
Si       2.69412165      -2.74190022       0.02020676       0.00000000
Si      -2.72552877      -2.72212416       0.00814555       0.00000000
Si       2.70270648       0.00498474       2.75265349       0.00000000
Si      -0.01163106      -2.71231758       2.75289520       0.00000000
