10
Lattice="16.28999089631971 0.0 0.0 0.0 16.28999089631971 0.0 0.0 0.0 34.529650657227435" Properties=species:S:1:pos:R:3:initial_magmoms:R:1 pbc="T T T"
Si      -2.28185433      -0.22537215       0.23822019       0.00000000
Si       0.02717172       1.14341139      -2.00306615       0.00000000
Si       0.98253135      -2.11719501      -0.21784769       0.00000000
Si       0.46781622       1.13469624       2.02012381       0.00000000
Si      -1.21616253       3.01055394      -1.23647295       0.00000000
Si       2.61993699       0.27601776       2.32598763       0.00000000
Si      -2.82256341       2.08826464       0.32116046       0.00000000
Si       2.75801103      -1.86007365       1.35718868       0.00000000
Si       2.37185658      -1.73327229      -2.09301594       0.00000000
Si      -2.44496610      -1.36164852       2.30675460       0.00000000
