10
Lattice="16.28999089631971 0.0 0.0 0.0 16.28999089631971 0.0 0.0 0.0 34.529650657227435" Properties=species:S:1:pos:R:3:initial_magmoms:R:1 pbc="T T T"
Si       2.15212077      -0.85867848       0.30586382       0.00000000
Si      -0.46781622      -1.13469624      -2.02012381       0.00000000
Si       0.19701126       2.37295520       0.22554780       0.00000000
Si      -1.36914192      -1.19796660       1.56277833       0.00000000
Si      -2.74967055      -1.36006839      -1.78190362       0.00000000
Si       0.28435824       2.11391162       2.91489115       0.00000000
Si       2.22506739      -1.25221230       2.57891746       0.00000000
Si      -2.85149934       0.41763033       2.44318133       0.00000000
Si       0.17029566      -2.26044927       3.04675996       0.00000000
Si       0.00400734       3.12431516      -2.18666041       0.00000000
