10
Lattice="16.28999089631971 0.0 0.0 0.0 16.28999089631971 0.0 0.0 0.0 34.529650657227435" Properties=species:S:1:pos:R:3:initial_magmoms:R:1 pbc="T T T"
Si       0.07294662      -0.39353382       2.27305364       0.00000000
Si      -2.15212077       0.85867848      -0.30586382       0.00000000
Si       0.13807404      -2.13609141      -0.96879895       0.00000000
Si       1.91195730       1.20250273      -0.67902596       0.00000000
Si      -2.61993699      -0.27601776      -2.32598763       0.00000000
Si       0.04310334       1.75705310       3.12638538       0.00000000
Si      -1.98182511      -1.40177079       2.74089614       0.00000000
Si       2.28361365      -2.12217975      -1.96946879       0.00000000
Si       2.62469367       0.09570375      -2.60661026       0.00000000
Si      -3.52126269      -0.33928812       1.25691452       0.00000000
