10
Lattice="16.28999089631971 0.0 0.0 0.0 16.28999089631971 0.0 0.0 0.0 34.529650657227435" Properties=species:S:1:pos:R:3:initial_magmoms:R:1 pbc="T T T"
Si      -0.12698055      -0.10744884       2.32888812       0.00000000
Si       1.85937318      -1.31504283      -0.77042600       0.00000000
Si      -2.07083367      -0.73402740      -1.01562118       0.00000000
Si       1.02392424       2.06526316      -0.78285668       0.00000000
Si       1.86893541      -1.23688341       2.71520607       0.00000000
Si       3.40278552      -0.64754379       0.93634106       0.00000000
Si      -1.58796549      -0.71803062      -3.37075185       0.00000000
Si       0.11067426       2.02953756       3.24534009       0.00000000
Si       1.29231828      -3.56366556      -0.58627927       0.00000000
Si       0.46680624       0.29020635      -3.83859435       0.00000000
