10
Lattice="16.28999089631971 0.0 0.0 0.0 16.28999089631971 0.0 0.0 0.0 34.529650657227435" Properties=species:S:1:pos:R:3:initial_magmoms:R:1 pbc="T T T"
Si      -1.81452844      -0.80902330       1.34571244       0.00000000
Si       0.86734476       1.87242147       1.26981277       0.00000000
Si      -1.44521622      -0.79382310      -1.82758637       0.00000000
Si       1.99008414      -1.64082491      -0.04640788       0.00000000
Si      -0.45621774      -2.14628328       2.73798326       0.00000000
Si      -0.04922838      -0.11127699      -3.59388258       0.00000000
Si       2.26046556       0.59360760       2.74834907       0.00000000
Si       0.96220143      -3.44037374       1.25508241       0.00000000
Si      -1.93261302      -3.11432939      -1.38367293       0.00000000
Si       2.30273811       0.00382815      -3.19471959       0.00000000
