10
Lattice="16.28999089631971 0.0 0.0 0.0 16.28999089631971 0.0 0.0 0.0 34.529650657227435" Properties=species:S:1:pos:R:3:initial_magmoms:R:1 pbc="T T T"
Si      -1.35710361      -1.35557836      -1.35739586       0.00000000
Si       1.35811359       1.35964322      -1.35753397       0.00000000
Si      -1.35726651       1.36099529       1.35850081       0.00000000
Si       1.36340784      -1.35807354       1.35743039       0.00000000
Si       0.00128691      -2.71296171      -2.71434283       0.00000000
Si      -2.71399545       0.00208675      -2.71413565       0.00000000
Si      -2.71591767      -2.71244043       0.00044889       0.00000000
Si       2.71494027      -2.71397169      -0.00048342       0.00000000
Si       2.71585251       0.00139931      -2.71420471       0.00000000
Si       0.00055386       2.71692602      -2.71413565       0.00000000
