10
Lattice="16.28999089631971 0.0 0.0 0.0 16.28999089631971 0.0 0.0 0.0 34.529650657227435" Properties=species:S:1:pos:R:3:initial_magmoms:R:1 pbc="T T T"
Si       0.71273637      -1.10679898      -1.92758430       0.00000000
Si      -1.91195730      -1.20250273       0.67902596       0.00000000
Si       0.09588294       2.31989115      -0.53244751       0.00000000
Si       1.25299422       0.35558105       2.00682989       0.00000000
Si      -0.29076021       1.95263310       2.76814005       0.00000000
Si      -1.57138227       2.84889261       1.01555212       0.00000000
Si       0.37165635      -3.32468248      -1.29044283       0.00000000
Si       2.94101289      -0.37179418      -2.02430190       0.00000000
Si       3.27432258       1.16888700       1.25201130       0.00000000
Si       2.41701246       2.83263519      -0.16809043       0.00000000
