10
Lattice="16.28999089631971 0.0 0.0 0.0 16.28999089631971 0.0 0.0 0.0 34.529650657227435" Properties=species:S:1:pos:R:3:initial_magmoms:R:1 pbc="T T T"
Si      -1.36417347      -1.34340372       1.39038896       0.00000000
Si       1.35260757       1.37239992       1.38510592       0.00000000
Si      -1.44710586       1.27839033      -1.42406574       0.00000000
Si       1.33283151      -1.39579236      -1.56618986       0.00000000
Si      -2.71674846      -2.68799661       0.02492697       0.00000000
Si       2.71376739      -2.70500337      -0.00946458       0.00000000
Si      -2.70198972       2.72429073       0.02694695       0.00000000
Si       2.70800073       2.72249883      -0.00038328       0.00000000
Si      -0.28709496      -2.48373630      -2.93084182       0.00000000
Si      -0.00622278      -2.69957880       2.74895882       0.00000000
