10
Lattice="16.28999089631971 0.0 0.0 0.0 16.28999089631971 0.0 0.0 0.0 34.529650657227435" Properties=species:S:1:pos:R:3:initial_magmoms:R:1 pbc="T T T"
Si       1.35531171       1.34462547       1.36923953       0.00000000
Si      -1.36210464       1.35149985      -1.35891516       0.00000000
Si       1.35382932      -1.36275624      -1.36019276       0.00000000
Si      -1.36658439      -1.38280923       1.34230639       0.00000000
Si       2.71446786       2.70949941      -0.00321126       0.00000000
Si      -2.71396287       2.71161711       0.00124307       0.00000000
Si      -0.00293220       2.71080261      -2.71689802       0.00000000
Si       2.71140534      -0.00348606      -2.71700161       0.00000000
Si       2.71028133      -2.71868697       0.00006906       0.00000000
Si      -2.71850778      -0.00400734      -2.71720879       0.00000000
