10
Lattice="16.28999089631971 0.0 0.0 0.0 16.28999089631971 0.0 0.0 0.0 34.529650657227435" Properties=species:S:1:pos:R:3:initial_magmoms:R:1 pbc="T T T"
Si       1.20686094       1.77898203      -1.13126105       0.00000000
Si      -1.52717121      -0.26665101      -1.87724004       0.00000000
Si       1.48726071      -2.05001505       0.02779638       0.00000000
Si      -1.13316498       1.20822930       2.01225105       0.00000000
Si      -2.32730343       1.93056048      -1.98407484       0.00000000
Si      -3.42899613      -1.29560886      -1.02718862       0.00000000
Si      -2.40839505       2.93389416       0.35506860       0.00000000
Si       2.23254450      -2.14143453       2.37747137       0.00000000
Si       1.83200598       3.49014879       0.33079424       0.00000000
Si       3.20548104       0.86317452      -2.15731019       0.00000000
