10
Lattice="16.28999089631971 0.0 0.0 0.0 16.28999089631971 0.0 0.0 0.0 34.529650657227435" Properties=species:S:1:pos:R:3:initial_magmoms:R:1 pbc="T T T"
Si      -1.34819950      -1.33213104       1.37928076       0.00000000
Si       1.36590021       1.38313503       1.37192594       0.00000000
Si      -1.39905362       1.29929040      -1.42182822       0.00000000
Si       1.33408584      -1.39984857      -1.46647854       0.00000000
Si       0.55680849       2.02585698      -2.63839689       0.00000000
Si       2.33111529       0.41607918      -2.92858704       0.00000000
Si      -2.69450974      -2.67921630      -0.00011395       0.00000000
Si       2.72720664      -2.67866244       0.01205776       0.00000000
Si       0.00783549      -2.68985367       2.73678020       0.00000000
Si      -2.70580362       0.02191005       2.73564073       0.00000000
