10
Lattice="16.28999089631971 0.0 0.0 0.0 16.28999089631971 0.0 0.0 0.0 34.529650657227435" Properties=species:S:1:pos:R:3:initial_magmoms:R:1 pbc="T T T"
Si       1.66667877       1.24768368       0.99963395       0.00000000
Si       1.13539671      -0.02019960      -2.03017194       0.00000000
Si      -0.16773813      -2.27095632       0.87867651       0.00000000
Si      -1.91441709       1.55491308      -0.42274675       0.00000000
Si      -1.58990400      -1.56859668       2.64984140       0.00000000
Si      -0.08664651      -3.27429000      -1.46046692       0.00000000
Si       1.96683831      -2.21506533      -2.10969377       0.00000000
Si       0.78408657       1.72522503       3.10534200       0.00000000
Si      -1.92969711       1.42636869      -2.85563823       0.00000000
Si       1.98156447       3.24623862      -0.28497337       0.00000000
