10
Lattice="16.28999089631971 0.0 0.0 0.0 16.28999089631971 0.0 0.0 0.0 34.529650657227435" Properties=species:S:1:pos:R:3:initial_magmoms:R:1 pbc="T T T"
Si       1.34907264       1.32866683       1.36433632       0.00000000
Si       1.35153243      -1.35589815      -1.35791380       0.00000000
Si      -1.36340784       1.35807354      -1.35743039       0.00000000
Si      -1.36355445      -1.35640314       1.37852801       0.00000000
Si      -0.09562230       2.62698146       2.69835559       0.00000000
Si       2.70505224      -2.71052568       0.00117401       0.00000000
Si       2.70972747       0.00226714      -2.71475718       0.00000000
Si      -0.00459378      -2.71278999      -2.71468812       0.00000000
Si       2.71358820       2.71690226       0.00397091       0.00000000
Si      -0.00529425       2.71771676      -2.71496436       0.00000000
