10
Lattice="16.28999089631971 0.0 0.0 0.0 16.28999089631971 0.0 0.0 0.0 34.529650657227435" Properties=species:S:1:pos:R:3:initial_magmoms:R:1 pbc="T T T"
Si      -0.56705490      -2.24862273       0.18414673       0.00000000
Si       0.49216977       0.44843112      -2.24021593       0.00000000
Si       1.54341234       0.66749904       1.70676706       0.00000000
Si      -1.85937318       1.31504283       0.77042600       0.00000000
Si      -0.55177488      -2.12007834       2.61703822       0.00000000
Si      -0.83544894       3.38030599      -0.01243068       0.00000000
Si       0.00956223       0.07815942       3.48563206       0.00000000
Si       2.02984803       2.22829281      -2.10302955       0.00000000
Si      -1.39256694       1.60524918      -3.06816835       0.00000000
Si      -2.53431675      -2.66033619      -1.06486049       0.00000000
