10
Lattice="16.28999089631971 0.0 0.0 0.0 16.28999089631971 0.0 0.0 0.0 34.529650657227435" Properties=species:S:1:pos:R:3:initial_magmoms:R:1 pbc="T T T"
Si      -1.06888464      -1.75671264       1.18724055       0.00000000
Si       1.80861910       1.05643419       1.15428198       0.00000000
Si      -1.72944414       1.84540450      -0.26501318       0.00000000
Si       1.69053452      -1.24887189      -1.57510339       0.00000000
Si       2.17793132       1.07163439      -2.01901683       0.00000000
Si      -2.29014594      -0.27212864       2.55174261       0.00000000
Si       0.03560994       2.04485926      -2.89247936       0.00000000
Si       0.46189671       2.45851124       2.54474690       0.00000000
Si      -2.29936608      -3.03125853      -0.48817844       0.00000000
Si      -3.63224646       1.02546527       0.99578389       0.00000000
