10
Lattice="16.28999089631971 0.0 0.0 0.0 16.28999089631971 0.0 0.0 0.0 34.529650657227435" Properties=species:S:1:pos:R:3:initial_magmoms:R:1 pbc="T T T"
Si       1.35597796      -1.35643821       1.36412914       0.00000000
Si      -1.36241415       1.35862347       1.36343855       0.00000000
Si       1.36662702       1.37079210      -1.37190177       0.00000000
Si      -1.38541563      -1.35984777      -1.36490606       0.00000000
Si       2.71094175      -2.70969719       0.00593910       0.00000000
Si      -2.71914309      -2.71038137       0.01028984       0.00000000
Si       2.71293727       2.71787736       0.00749294       0.00000000
Si       2.71275645       0.00153778       2.72097252       0.00000000
Si      -2.71547784       2.71891992       0.00511039       0.00000000
Si      -0.00223173      -2.71344389       2.72121423       0.00000000
