10
Lattice="16.28999089631971 0.0 0.0 0.0 16.28999089631971 0.0 0.0 0.0 34.529650657227435" Properties=species:S:1:pos:R:3:initial_magmoms:R:1 pbc="T T T"
Si      -1.35728280       1.35720570      -1.35687791       0.00000000
Si       1.35728280       1.35652152       1.35836269       0.00000000
Si       1.35773892      -1.35751369      -1.35715415       0.00000000
Si      -1.35819504      -1.35816529       1.35684338       0.00000000
Si      -2.70972747      -0.00226714       2.71475718       0.00000000
Si      -2.71383255      -0.00147098      -2.71399753       0.00000000
Si      -0.00141723      -2.71344442      -2.71451547       0.00000000
Si      -0.00467523      -2.71279282       2.71593119       0.00000000
Si      -2.71432125      -2.71505713       0.00006906       0.00000000
Si      -0.00244350       2.71455366      -2.71492983       0.00000000
