10
Lattice="16.28999089631971 0.0 0.0 0.0 16.28999089631971 0.0 0.0 0.0 34.529650657227435" Properties=species:S:1:pos:R:3:initial_magmoms:R:1 pbc="T T T"
Si       1.35483930       1.35734796      -1.35805192       0.00000000
Si       1.35728280      -1.35720570       1.35687791       0.00000000
Si      -1.35654975      -1.35867669      -1.35711962       0.00000000
Si      -1.35773892       1.35824391       1.35667073       0.00000000
Si      -0.00188964      -2.71165688      -2.71120063       0.00000000
Si      -0.00171045       2.71555929       2.71334146       0.00000000
Si      -2.71456560      -2.71436102      -0.00013812       0.00000000
Si      -0.00091224      -2.71537100       2.71372129       0.00000000
Si       2.71502172      -2.71471940      -0.00027624       0.00000000
Si       2.71456560      -0.00068418       2.71524060       0.00000000
