10
Lattice="16.28999089631971 0.0 0.0 0.0 16.28999089631971 0.0 0.0 0.0 34.529650657227435" Properties=species:S:1:pos:R:3:initial_magmoms:R:1 pbc="T T T"
Si       1.15729047      -1.51508403       1.31143686       0.00000000
Si       1.37001116       1.33942896      -1.36702963       0.00000000
Si      -1.34491869      -1.37246508      -1.36516503       0.00000000
Si      -1.39263210       1.25908668       1.49278669       0.00000000
Si      -0.83129499      -2.17640916       2.69241649       0.00000000
Si      -2.70865233       2.69711901       0.03017893       0.00000000
Si      -2.64653856      -0.31817628       2.74213921       0.00000000
Si       0.00969255       2.70189198      -2.72539232       0.00000000
Si      -2.70777267      -0.01433520      -2.72742957       0.00000000
Si       2.73415988       2.71023246       0.00445433       0.00000000
