10
Lattice="16.28999089631971 0.0 0.0 0.0 16.28999089631971 0.0 0.0 0.0 34.529650657227435" Properties=species:S:1:pos:R:3:initial_magmoms:R:1 pbc="T T T"
Si       1.17341757      -0.03416013       2.02150500       0.00000000
Si      -0.54571500      -1.96467893      -1.24034027       0.00000000
Si       1.98858546       0.66132513      -1.38097962       0.00000000
Si      -1.81524357       1.85823288       0.04972272       0.00000000
Si       3.07904199       0.90134199       0.69031716       0.00000000
Si      -1.87813926      -0.58429135      -2.69721611       0.00000000
Si       0.83129499       2.17640916      -2.69241649       0.00000000
Si      -3.32283420       0.71402328      -1.36319684       0.00000000
Si      -0.56133711       3.43549584      -1.19962979       0.00000000
Si       0.59466645       1.66379544       3.53473325       0.00000000
