10
Lattice="16.28999089631971 0.0 0.0 0.0 16.28999089631971 0.0 0.0 0.0 34.529650657227435" Properties=species:S:1:pos:R:3:initial_magmoms:R:1 pbc="T T T"
Si      -1.50759063      -1.14420960      -1.41291956       0.00000000
Si       1.25390646       1.57726296      -1.24935252       0.00000000
Si      -1.02734514       0.88992270       2.10106136       0.00000000
Si       1.81524357      -1.85823288      -0.04972272       0.00000000
Si      -0.06289569      -2.44252423      -2.74693883       0.00000000
Si       0.95750991       1.73664432       3.25179714       0.00000000
Si       2.64653856       0.31817628      -2.74213921       0.00000000
Si      -3.26508615      -2.00699316      -0.04316209       0.00000000
Si      -2.76288174       0.30802761      -2.75550219       0.00000000
Si       2.83998231       2.77259058       0.25324060       0.00000000
