10
Lattice="16.28999089631971 0.0 0.0 0.0 16.28999089631971 0.0 0.0 0.0 34.529650657227435" Properties=species:S:1:pos:R:3:initial_magmoms:R:1 pbc="T T T"
Si       2.19994399       0.14404595       0.71597271       0.00000000
Si      -1.16564724       2.03941026       0.12406510       0.00000000
Si      -0.63719964      -1.70195381       1.54282018       0.00000000
Si      -0.40506714      -0.71484497      -2.24284018       0.00000000
Si       2.74065308      -2.16959084       0.63303244       0.00000000
Si      -2.66626575      -1.86594524      -1.76905858       0.00000000
Si       1.95771332       0.94818388       3.00245839       0.00000000
Si      -0.76929525       3.06260145      -1.95569145       0.00000000
Si      -0.19054413       1.36464588      -3.46891970       0.00000000
Si      -2.82818835      -1.25391365       2.13907852       0.00000000
