10
Lattice="16.28999089631971 0.0 0.0 0.0 16.28999089631971 0.0 0.0 0.0 34.529650657227435" Properties=species:S:1:pos:R:3:initial_magmoms:R:1 pbc="T T T"
Si      -1.36063854       1.35584928       1.36212642       0.00000000
Si       1.35585443      -1.36031274       1.36278248       0.00000000
Si       1.35943197       1.36386396      -1.37128024       0.00000000
Si      -1.38147345      -1.37077092      -1.36902545       0.00000000
Si      -0.10445148       2.59237431      -2.79738668       0.00000000
Si       2.71345855      -2.71435383       0.00642252       0.00000000
Si      -2.71495656      -2.71331127       0.00403997       0.00000000
Si       2.71213254       2.71635750       0.00372920       0.00000000
Si       2.71295682      -0.00016290       2.71983304       0.00000000
Si      -0.00162900       2.71472850       2.71997116       0.00000000
