10
Lattice="16.28999089631971 0.0 0.0 0.0 16.28999089631971 0.0 0.0 0.0 34.529650657227435" Properties=species:S:1:pos:R:3:initial_magmoms:R:1 pbc="T T T"
Si      -1.14787485       1.77756480       0.98834274       0.00000000
Si      -0.97264332       0.82008747      -1.99277631       0.00000000
Si       2.36946195       0.42298614       0.13815321       0.00000000
Si      -0.39698730      -2.21809527       0.91807486       0.00000000
Si       2.89948968      -1.83097971       0.12409963       0.00000000
Si       0.42207390       2.72192868      -2.19543095       0.00000000
Si       0.64580076       2.70464499       2.19284122       0.00000000
Si       1.68269184      -2.28656214       2.18089395       0.00000000
Si       2.49256548       1.30398192       2.32712711       0.00000000
Si       0.20735541      -3.75295536      -0.80243500       0.00000000
