10
Lattice="16.28999089631971 0.0 0.0 0.0 16.28999089631971 0.0 0.0 0.0 34.529650657227435" Properties=species:S:1:pos:R:3:initial_magmoms:R:1 pbc="T T T"
Si      -0.49142043      -1.31696505       1.73915589       0.00000000
Si      -0.59991183      -0.49974462      -2.11000454       0.00000000
Si       2.05957728       0.99469998       0.30627817       0.00000000
Si      -0.88896159       0.78872922       2.70612476       0.00000000
Si      -2.62132164       1.55924622       0.38283045       0.00000000
Si       0.89184492       2.26315341       2.21314467       0.00000000
Si      -2.39339196       1.16427888      -2.00358410       0.00000000
Si       1.97275158       2.15837613      -1.85710924       0.00000000
Si       1.15880544       0.48622392      -3.30628496       0.00000000
Si      -2.66841603      -2.21198652       1.86442953       0.00000000
