10
Lattice="16.28999089631971 0.0 0.0 0.0 16.28999089631971 0.0 0.0 0.0 34.529650657227435" Properties=species:S:1:pos:R:3:initial_magmoms:R:1 pbc="T T T"
Si      -1.91953215       1.24537050      -0.37167737       0.00000000
Si      -0.19924299      -1.86893541      -1.36267890       0.00000000
Si       2.17879078       0.76178556      -0.37195360       0.00000000
Si      -0.65761101      -0.08535960       2.31573232       0.00000000
Si       1.67720211       2.65948911       1.06724304       0.00000000
Si       2.95328808      -1.55505969      -0.19191591       0.00000000
Si      -0.96741423       2.62573623      -2.04246451       0.00000000
Si      -3.39768675      -0.66889998      -0.21729521       0.00000000
Si      -0.46042056      -2.36340207       2.66727889       0.00000000
Si       0.57741534       1.83446577       3.14834625       0.00000000
