10
Lattice="16.28999089631971 0.0 0.0 0.0 16.28999089631971 0.0 0.0 0.0 34.529650657227435" Properties=species:S:1:pos:R:3:initial_magmoms:R:1 pbc="T T T"
Si      -0.02889846       1.03858524      -2.12947928       0.00000000
Si      -1.21011894       1.42475598       1.47959636       0.00000000
Si       2.20342842       0.29421369       0.91569232       0.00000000
Si      -1.45870434      -1.94318523      -0.22962231       0.00000000
Si      -2.01852648       3.06838440      -0.04530293       0.00000000
Si       1.93608607      -0.43919469       3.15010726       0.00000000
Si      -0.24270471      -1.20098025       3.52206086       0.00000000
Si       2.34068796       2.58198129       1.44620617       0.00000000
Si      -0.44194770      -3.06991566       2.15938197       0.00000000
Si      -2.16223686       0.04439025       3.15038350       0.00000000
