10
Lattice="16.28999089631971 0.0 0.0 0.0 16.28999089631971 0.0 0.0 0.0 34.529650657227435" Properties=species:S:1:pos:R:3:initial_magmoms:R:1 pbc="T T T"
Si       1.00372464      -1.77419277       1.27842650       0.00000000
Si      -2.35792863      -0.48321027       0.16802137       0.00000000
Si       0.68727510      -0.10168218      -2.31162328       0.00000000
Si       1.17356418       1.97993547       0.75371364       0.00000000
Si      -0.70040484      -1.76469570       2.94455214       0.00000000
Si      -2.55742411      -2.31990777      -1.42652425       0.00000000
Si       0.85390551      -2.37961062      -2.86907028       0.00000000
Si       2.52833832       1.27008243       2.59404146       0.00000000
Si       2.71871955       2.53149858      -1.00132590       0.00000000
Si      -3.57870842       1.60406001      -0.14754528       0.00000000
