10
Lattice="16.28999089631971 0.0 0.0 0.0 16.28999089631971 0.0 0.0 0.0 34.529650657227435" Properties=species:S:1:pos:R:3:initial_magmoms:R:1 pbc="T T T"
Si      -1.04878278       1.93222206       0.80868487       0.00000000
Si       2.22604479      -0.16462674       0.73517120       0.00000000
Si       0.00856854       0.80278749      -2.23410418       0.00000000
Si      -1.31294142      -1.83314628       0.75789173       0.00000000
Si       2.46883095       1.47962070       2.46852611       0.00000000
Si      -2.92843538       2.36757231      -0.54840022       0.00000000
Si      -0.17552475      -0.92839968      -3.73262279       0.00000000
Si       3.70113687      -0.16368192      -1.10930018       0.00000000
Si      -1.85626179       2.21206797      -2.74348587       0.00000000
Si      -2.00050974       1.88612136       2.90135552       0.00000000
