10
Lattice="16.28999089631971 0.0 0.0 0.0 16.28999089631971 0.0 0.0 0.0 34.529650657227435" Properties=species:S:1:pos:R:3:initial_magmoms:R:1 pbc="T T T"
Si      -0.95172696      -0.04610070       2.09267065       0.00000000
Si       1.04878278      -1.93222206      -0.80868487       0.00000000
Si      -1.87965260       0.43535025      -1.35708509       0.00000000
Si       0.99554706       2.19934548      -0.15693735       0.00000000
Si      -1.30793062       2.23244676       2.16853233       0.00000000
Si       1.05735132      -1.12943457      -3.04278905       0.00000000
Si      -0.80747901       0.27984591      -3.55217074       0.00000000
Si       3.05343018       1.84726971       1.19445034       0.00000000
Si      -0.26415864      -3.76536834      -0.05079314       0.00000000
Si       0.54983637      -0.68639544       3.72026397       0.00000000
