10
Lattice="16.28999089631971 0.0 0.0 0.0 16.28999089631971 0.0 0.0 0.0 34.529650657227435" Properties=species:S:1:pos:R:3:initial_magmoms:R:1 pbc="T T T"
Si       0.95172696       0.04610070      -2.09267065       0.00000000
Si       1.50156333      -0.64029474       1.62759333       0.00000000
Si      -0.35620366       2.27854746       0.07586168       0.00000000
Si      -0.45429878      -1.36686132       2.84416199       0.00000000
Si      -2.19296699      -2.37092805       1.40587551       0.00000000
Si      -0.92792564       0.48145095      -3.44975574       0.00000000
Si       1.94727402       2.24544618      -2.24960800       0.00000000
Si      -1.90570913       2.89342980       1.64498799       0.00000000
Si       2.31782265       1.28581857       2.81509837       0.00000000
Si      -1.49077120      -3.44390148      -1.11251144       0.00000000
