10
Lattice="16.28999089631971 0.0 0.0 0.0 16.28999089631971 0.0 0.0 0.0 34.529650657227435" Properties=species:S:1:pos:R:3:initial_magmoms:R:1 pbc="T T T"
Si       1.32898331       1.34542368       1.36820364       0.00000000
Si      -1.36005653       1.35366642      -1.35670526       0.00000000
Si       1.35471010      -1.36060596      -1.35829363       0.00000000
Si      -1.35472970      -1.36653552       1.39385919       0.00000000
Si       2.56492841      -0.10621080       2.75267076       0.00000000
Si      -0.16443569       2.57222358       2.80508680       0.00000000
Si       2.70380066      -2.71075374      -0.00307314       0.00000000
Si       2.71219001      -0.00234576      -2.71472265       0.00000000
Si      -0.00177091       2.71303434      -2.71417018       0.00000000
Si       2.71574123       2.71432125       0.00549022       0.00000000
