10
Lattice="16.28999089631971 0.0 0.0 0.0 16.28999089631971 0.0 0.0 0.0 34.529650657227435" Properties=species:S:1:pos:R:3:initial_magmoms:R:1 pbc="T T T"
Si       1.87965260      -0.43535025       1.35708509       0.00000000
Si      -1.30576635      -1.71453879      -1.03647710       0.00000000
Si       1.07217359      -0.15550434      -2.19508565       0.00000000
Si      -0.77449730       2.31684525      -0.18003770       0.00000000
Si      -2.95328808       1.55505969       0.19191591       0.00000000
Si      -3.15253107      -0.31387572      -1.17076299       0.00000000
Si       2.87519966       1.76399523       1.20014774       0.00000000
Si       0.92792564      -0.48145095       3.44975574       0.00000000
Si       2.93700392      -1.56478482      -1.68570396       0.00000000
Si       1.57413365       2.05350111      -2.73765035       0.00000000
