10
Lattice="16.28999089631971 0.0 0.0 0.0 16.28999089631971 0.0 0.0 0.0 34.529650657227435" Properties=species:S:1:pos:R:3:initial_magmoms:R:1 pbc="T T T"
Si      -1.54950547       0.61488234       1.56912631       0.00000000
Si       0.35620366      -2.27854746      -0.07586168       0.00000000
Si       1.51466701       1.72066383      -0.64553218       0.00000000
Si       2.30347768      -0.03310128      -2.32546968       0.00000000
Si      -2.94759472       1.59242895      -0.18535527       0.00000000
Si       1.30793062      -2.23244676      -2.16853233       0.00000000
Si      -0.00566403       1.95735753       2.78624883       0.00000000
Si       1.29507781       3.32236179       1.27697625       0.00000000
Si       1.85776699      -2.91884220       1.55173164       0.00000000
Si      -1.84780795       2.41745229      -2.26645848       0.00000000
