10
Lattice="16.28999089631971 0.0 0.0 0.0 16.28999089631971 0.0 0.0 0.0 34.529650657227435" Properties=species:S:1:pos:R:3:initial_magmoms:R:1 pbc="T T T"
Si      -1.39843690       1.26995211       1.41528139       0.00000000
Si      -1.54384144      -1.34247519      -1.21712252       0.00000000
Si       1.31699926      -1.45911159       1.39477077       0.00000000
Si       1.30074184       1.36500426      -1.50927258       0.00000000
Si       0.00566403      -1.95735753      -2.78624883       0.00000000
Si       1.52033104      -0.23669370      -3.43178101       0.00000000
Si       2.73556504       2.67529041      -0.07732920       0.00000000
Si      -0.04357249       2.62822860       2.78160662       0.00000000
Si      -2.91866857       2.49349401       0.04625940       0.00000000
Si       2.67372820      -0.09138690       2.77642717       0.00000000
