10
Lattice="16.28999089631971 0.0 0.0 0.0 16.28999089631971 0.0 0.0 0.0 34.529650657227435" Properties=species:S:1:pos:R:3:initial_magmoms:R:1 pbc="T T T"
Si      -1.35342370       1.35264015      -1.36468162       0.00000000
Si       1.36355445      -1.36430542      -1.36437085       0.00000000
Si      -1.36826226      -1.37353370       1.36820364       0.00000000
Si       1.36906047       1.36948401       1.38736761       0.00000000
Si      -2.70694320       2.70640431      -0.00531757       0.00000000
Si       2.72521926       2.70332550      -0.01284504       0.00000000
Si      -2.70870839      -2.72142593      -0.00770012       0.00000000
Si       0.00443088       2.71041165      -2.72211200       0.00000000
Si      -2.71086651      -0.00477297      -2.72173217       0.00000000
Si       2.71814940      -2.71928060      -0.00928848       0.00000000
