10
Lattice="16.28999089631971 0.0 0.0 0.0 16.28999089631971 0.0 0.0 0.0 34.56954931742767" Properties=species:S:1:pos:R:3:initial_magmoms:R:1 pbc="T T T"
Si       1.33807689       1.36083402       1.37286128       0.00000000
Si       1.35563751      -1.35627119      -1.36166074       0.00000000
Si      -1.35899325       1.35780408      -1.36096935       0.00000000
Si      -1.36278882      -1.34627565       1.37590340       0.00000000
Si       2.71340901      -2.71487225      -0.00269643       0.00000000
Si       2.71134018       2.71852407      -0.00044940       0.00000000
Si      -2.71920825      -2.71169462      -0.00138278       0.00000000
Si       2.71322982       0.00057015      -2.71851631       0.00000000
Si      -0.00153126      -2.71411560      -2.71893114       0.00000000
Si      -0.00192222       2.71619460      -2.71830889       0.00000000
