10
Lattice="16.28999089631971 0.0 0.0 0.0 16.28999089631971 0.0 0.0 0.0 34.56954931742767" Properties=species:S:1:pos:R:3:initial_magmoms:R:1 pbc="T T T"
Si       1.33343424       1.35379674       1.36691531       0.00000000
Si       1.35523026      -1.35714434      -1.35882603       0.00000000
Si      -1.36094153       1.35679410      -1.35830749       0.00000000
Si      -1.35212701      -1.36606800       1.38693109       0.00000000
Si       2.71028133      -2.71268831       0.00169391       0.00000000
Si       2.71261080      -0.00009774      -2.71575074       0.00000000
Si      -0.00221544       2.71490769      -2.71557789       0.00000000
Si      -0.00188964      -2.71487999      -2.71564703       0.00000000
Si       2.71151937       2.71933857       0.00210874       0.00000000
Si      -2.71718548      -0.00006516      -2.71540505       0.00000000
