10
Lattice="16.28999089631971 0.0 0.0 0.0 16.28999089631971 0.0 0.0 0.0 34.56954931742767" Properties=species:S:1:pos:R:3:initial_magmoms:R:1 pbc="T T T"
Si       1.79336610      -0.95034868      -1.13872159       0.00000000
Si       1.42480485       1.22634459       1.40255796       0.00000000
Si      -1.28058948      -1.46797972       1.33472901       0.00000000
Si      -1.86136056       0.62178360      -1.43404942       0.00000000
Si       0.66218850      -0.49597171      -3.16892322       0.00000000
Si      -2.63850759       2.44291437      -0.00705219       0.00000000
Si      -2.15032887      -3.06267298      -0.27790476       0.00000000
Si       0.06589305       2.59991739       2.76514171       0.00000000
Si       2.21700384       2.25085527      -2.11825032       0.00000000
Si       3.12813612       2.20491747       0.08199294       0.00000000
