10
Lattice="16.28999089631971 0.0 0.0 0.0 16.28999089631971 0.0 0.0 0.0 34.56954931742767" Properties=species:S:1:pos:R:3:initial_magmoms:R:1 pbc="T T T"
Si      -1.35883035       1.35237951      -1.36166074       0.00000000
Si       1.35897696      -1.36252818      -1.36000140       0.00000000
Si       1.35778779       1.35529542       1.38012089       0.00000000
Si      -1.37808513      -1.36554183       1.36480657       0.00000000
Si       2.47850721      -0.14740821       2.85440928       0.00000000
Si      -2.70995553       2.70770751      -0.00252358       0.00000000
Si       2.71577106       2.71208952      -0.00169391       0.00000000
Si       0.00096111       2.71026504      -2.71761750       0.00000000
Si      -2.71151937      -2.71933857      -0.00210874       0.00000000
Si      -2.71373481      -0.00443088      -2.71768664       0.00000000
