10
Lattice="16.28999089631971 0.0 0.0 0.0 16.28999089631971 0.0 0.0 0.0 34.56954931742767" Properties=species:S:1:pos:R:3:initial_magmoms:R:1 pbc="T T T"
Si       0.14595840      -1.19723355       2.09716288       0.00000000
Si      -0.59416146      -1.91337453      -1.40749999       0.00000000
Si       1.94816997       0.60351192      -1.35975941       0.00000000
Si      -1.76197527       1.81104075       0.01863300       0.00000000
Si       2.59172271      -1.51179345       1.57402160       0.00000000
Si      -1.90842237      -0.61462170      -2.84936213       0.00000000
Si       0.82745055       2.10621555      -2.83404781       0.00000000
Si      -3.33409059       0.66986109      -1.36197187       0.00000000
Si      -0.53080965       3.46525767      -1.32432560       0.00000000
Si       0.34964856       2.04659415       3.14486280       0.00000000
