10
Lattice="16.28999089631971 0.0 0.0 0.0 16.28999089631971 0.0 0.0 0.0 34.56954931742767" Properties=species:S:1:pos:R:3:initial_magmoms:R:1 pbc="T T T"
Si      -0.81339228      -1.83824505       1.22359265       0.00000000
Si       1.81239282       0.90225423       1.24738342       0.00000000
Si       0.36771417      -0.75543246      -2.24263028       0.00000000
Si      -1.73775204       1.93269447      -0.38538021       0.00000000
Si      -1.03004928       1.20055671      -3.04481712       0.00000000
Si       0.46716462       2.17745172       2.66659904       0.00000000
Si      -2.24761275      -0.55473966       2.64136325       0.00000000
Si      -3.50750578       0.86079618       1.08032253       0.00000000
Si      -0.86801265       3.52738773       1.22725356       0.00000000
Si       2.84034069      -0.58231863      -2.53664446       0.00000000
