10
Lattice="16.28999089631971 0.0 0.0 0.0 16.28999089631971 0.0 0.0 0.0 34.56954931742767" Properties=species:S:1:pos:R:3:initial_magmoms:R:1 pbc="T T T"
Si      -0.13100418      -2.15032887       0.91758006       0.00000000
Si       2.33062659       0.39928419      -0.23541876       0.00000000
Si       0.33329340       1.02095946       2.15727936       0.00000000
Si       1.53376866       2.51502939       0.82707693       0.00000000
Si       1.69209117      -0.14955849      -2.63026020       0.00000000
Si      -0.11850975       1.46140848      -2.95974276       0.00000000
Si      -2.02048128       1.17696879       2.40434807       0.00000000
Si      -3.04469711       1.57951098       0.11560064       0.00000000
Si      -1.65426579       2.66593995      -1.54017799       0.00000000
Si      -1.71558135      -3.41234775      -0.36643743       0.00000000
