10
Lattice="16.28999089631971 0.0 0.0 0.0 16.28999089631971 0.0 0.0 0.0 34.56954931742767" Properties=species:S:1:pos:R:3:initial_magmoms:R:1 pbc="T T T"
Si       1.09351512       2.00984391       0.62308191       0.00000000
Si       1.44202338      -1.53365463       1.10992514       0.00000000
Si      -2.27084229      -0.32031027       0.70241907       0.00000000
Si      -0.16944858       0.01451439      -2.44258201       0.00000000
Si       0.29484900       3.18580272      -1.20288271       0.00000000
Si       1.63538568      -1.41538923      -2.88514163       0.00000000
Si      -2.51530632      -2.62457964       0.01358584       0.00000000
Si      -3.48070385       1.41276654      -0.57209179       0.00000000
Si      -0.04233771       3.08309427       2.34423159       0.00000000
Si       1.02511341      -3.73283721       0.29187087       0.00000000
