10
Lattice="16.28999089631971 0.0 0.0 0.0 16.28999089631971 0.0 0.0 0.0 34.56954931742767" Properties=species:S:1:pos:R:3:initial_magmoms:R:1 pbc="T T T"
Si      -2.33062659      -0.39928419       0.23541876       0.00000000
Si      -0.79685793       2.11574520       1.06249569       0.00000000
Si       1.34143263      -0.89383230       1.94083929       0.00000000
Si      -0.63853542      -0.54884268      -2.39484144       0.00000000
Si      -1.99733319       0.62167527       2.39269812       0.00000000
Si       3.31605756      -0.27601776       0.82310143       0.00000000
Si       3.00721545       1.98891126       0.03771540       0.00000000
Si      -2.46163077      -2.54961306       1.15299882       0.00000000
Si      -2.44913634       1.06212429      -2.72432400       0.00000000
Si       1.14148917       3.25650132       1.63417265       0.00000000
