10
Lattice="16.28999089631971 0.0 0.0 0.0 16.28999089631971 0.0 0.0 0.0 34.56954931742767" Properties=species:S:1:pos:R:3:initial_magmoms:R:1 pbc="T T T"
Si      -2.08715692       1.04597601      -0.17678877       0.00000000
Si      -0.34887478      -0.92463084       2.17715686       0.00000000
Si       0.03707767      -1.80505647      -1.58421962       0.00000000
Si       1.95700567       1.36852942      -0.54785852       0.00000000
Si       1.75988038       0.88537779      -2.92959809       0.00000000
Si      -1.90229800       2.56715413      -1.90471409       0.00000000
Si       1.02727021      -3.56766705      -0.43042570       0.00000000
Si       2.25724666      -1.42092198      -2.68550237       0.00000000
Si      -3.79552180      -0.58063491       0.26300528       0.00000000
Si      -2.34040126       2.76181963       1.39173626       0.00000000
