10
Lattice="16.28999089631971 0.0 0.0 0.0 16.28999089631971 0.0 0.0 0.0 34.56954931742767" Properties=species:S:1:pos:R:3:initial_magmoms:R:1 pbc="T T T"
Si      -1.01709873      -1.43521416       1.60326745       0.00000000
Si      -0.28432566       1.85847953       1.47332045       0.00000000
Si       2.47549356      -0.28598724       0.00418292       0.00000000
Si      -1.92754683       0.17593200      -1.60323288       0.00000000
Si      -0.57941901       0.26059113       3.26042887       0.00000000
Si       0.84813885      -2.09652300      -2.78146749       0.00000000
Si       2.78648595      -0.95576688      -2.20979054       0.00000000
Si      -2.22778782       2.96538340       0.53441096       0.00000000
Si      -3.15752328      -1.97081307       0.65184379       0.00000000
Si      -0.97552665      -0.76613499      -3.58213327       0.00000000
