10
Lattice="16.28999089631971 0.0 0.0 0.0 16.28999089631971 0.0 0.0 0.0 34.56954931742767" Properties=species:S:1:pos:R:3:initial_magmoms:R:1 pbc="T T T"
Si       0.32757561      -2.25808722       0.49258178       0.00000000
Si       1.01709873       1.43521416      -1.60326745       0.00000000
Si      -2.14042455      -0.53559891      -0.95142367       0.00000000
Si       0.43767972       1.69580529       1.65716141       0.00000000
Si       0.73277307       3.29369369      -0.12994701       0.00000000
Si      -0.91044810       1.61114616      -3.20650034       0.00000000
Si      -1.53437139       1.90490373       2.85465127       0.00000000
Si       0.66476232      -2.15537877      -3.05453252       0.00000000
Si      -1.65025845      -3.09395970       1.53599507       0.00000000
Si       1.26177453      -2.54444913       2.58027260       0.00000000
