10
Lattice="16.28999089631971 0.0 0.0 0.0 16.28999089631971 0.0 0.0 0.0 34.56954931742767" Properties=species:S:1:pos:R:3:initial_magmoms:R:1 pbc="T T T"
Si       0.95943213       1.10603513       1.81410725       0.00000000
Si      -0.32500179       1.05711788      -2.05737331       0.00000000
Si       1.41084432      -1.77447738      -0.68589481       0.00000000
Si      -1.86044506      -1.19786025       0.90437449       0.00000000
Si      -0.52155693      -0.96579291      -3.26056714       0.00000000
Si      -0.26349075      -2.91971325      -1.88006599       0.00000000
Si       2.74203054      -0.44448033       2.26434132       0.00000000
Si       2.32204176      -2.50848849       1.33597555       0.00000000
Si      -2.03593723      -3.19955916      -0.38825083       0.00000000
Si       1.05513588       3.40721591       1.34776377       0.00000000
