10
Lattice="16.28999089631971 0.0 0.0 0.0 16.28999089631971 0.0 0.0 0.0 34.56954931742767" Properties=species:S:1:pos:R:3:initial_magmoms:R:1 pbc="T T T"
Si      -1.55452212      -1.06639227       1.31533752       0.00000000
Si      -1.39867569       1.30955310      -1.39408699       0.00000000
Si       1.33636644      -1.40879178      -1.39446726       0.00000000
Si       1.24779771       1.57959243       1.61246296       0.00000000
Si       1.61398062      -0.67175073       1.95248924       0.00000000
Si      -0.83844630       2.39958216       2.58051459       0.00000000
Si      -2.33266284       0.40633776       3.02027407       0.00000000
Si      -2.69672805      -2.73258462       0.02589261       0.00000000
Si      -0.02541240       2.66724315      -2.76739768       0.00000000
Si       2.75576301      -2.68836069       0.08797955       0.00000000
