10
Lattice="16.28999089631971 0.0 0.0 0.0 16.28999089631971 0.0 0.0 0.0 34.56954931742767" Properties=species:S:1:pos:R:3:initial_magmoms:R:1 pbc="T T T"
Si      -0.55977327       0.46177475       2.19855543       0.00000000
Si       2.14378029      -1.11459130       0.01282531       0.00000000
Si      -1.76498892      -1.69730089      -0.05240747       0.00000000
Si      -0.23211621       2.16794862      -1.11638965       0.00000000
Si       1.16634771       2.01407328       2.51898076       0.00000000
Si      -1.45399653      -2.36708053      -2.26638092       0.00000000
Si      -0.19719045       1.31548315      -3.40582847       0.00000000
Si      -2.57210955       1.68340257       2.01989990       0.00000000
Si       1.49960853      -3.27979294       0.80944645       0.00000000
Si      -1.77585435       3.26869650       0.45223910       0.00000000
