10
Lattice="16.28999089631971 0.0 0.0 0.0 16.28999089631971 0.0 0.0 0.0 34.56954931742767" Properties=species:S:1:pos:R:3:initial_magmoms:R:1 pbc="T T T"
Si       2.00477772       1.38976506      -0.04487130       0.00000000
Si       0.03492576      -0.85246547      -2.28943882       0.00000000
Si       0.23211621      -2.16794862       1.11638965       0.00000000
Si      -1.54373814       1.10074788       1.56862875       0.00000000
Si       2.06247690       1.69070652       2.24619229       0.00000000
Si      -0.03940551       2.76714972       2.45789633       0.00000000
Si      -0.32765706      -1.70617387       3.31494508       0.00000000
Si       2.33036595      -1.03384485      -2.83543059       0.00000000
Si      -0.77809185       0.96055614      -3.64456591       0.00000000
Si       1.39846392      -0.15387534       3.63537041       0.00000000
