10
Lattice="16.28999089631971 0.0 0.0 0.0 16.28999089631971 0.0 0.0 0.0 34.56954931742767" Properties=species:S:1:pos:R:3:initial_magmoms:R:1 pbc="T T T"
Si      -0.59305930       2.11616874      -0.82880541       0.00000000
Si       0.52690819      -0.99958698      -2.07856445       0.00000000
Si       1.67454847       0.67522050       1.62549569       0.00000000
Si      -1.61059786      -1.34433225       1.23382247       0.00000000
Si       1.11977460       3.57958089      -0.27202794       0.00000000
Si      -2.64405175       2.67744069       0.11843534       0.00000000
Si      -1.13173702      -3.58897112       0.74801633       0.00000000
Si       2.64038257      -1.97572125      -1.99328133       0.00000000
Si       1.60829704       2.99185398       1.95003480       0.00000000
Si       0.39164907       0.58875318      -3.90646496       0.00000000
