10
Lattice="16.28999089631971 0.0 0.0 0.0 16.28999089631971 0.0 0.0 0.0 34.56954931742767" Properties=species:S:1:pos:R:3:initial_magmoms:R:1 pbc="T T T"
Si      -0.05769918      -0.30094146      -2.29106359       0.00000000
Si      -2.10188241       1.07644320       0.21170404       0.00000000
Si       2.13324066       0.84207897       0.66940513       0.00000000
Si      -0.66401298      -1.84458186       1.38917812       0.00000000
Si      -2.06247690      -1.69070652      -2.24619229       0.00000000
Si      -2.11172157       1.29647223       2.57577856       0.00000000
Si      -1.16066250      -0.72624078       3.36904645       0.00000000
Si      -3.60621504      -0.58995864      -0.67756355       0.00000000
Si       2.03585904       1.49208255       2.89454455       0.00000000
Si       0.34858971       1.84787244      -3.37914076       0.00000000
