10
Lattice="16.28999089631971 0.0 0.0 0.0 16.28999089631971 0.0 0.0 0.0 34.56954931742767" Properties=species:S:1:pos:R:3:initial_magmoms:R:1 pbc="T T T"
Si      -0.26326269       0.18353943       2.29140138       0.00000000
Si       1.46479680      -1.65773460      -0.78908497       0.00000000
Si       0.68233923       2.29733797      -0.59432002       0.00000000
Si      -2.37231270      -0.15075092      -1.32245885       0.00000000
Si       1.00393641      -0.56781957      -3.00509803       0.00000000
Si       2.05939809       1.52009321      -2.37206009       0.00000000
Si      -2.98336689       1.88617837      -0.00867696       0.00000000
Si      -2.07223461       1.84024057       2.19156629       0.00000000
Si      -1.30592043      -1.10820774      -3.18112628       0.00000000
Si       0.34055874      -3.68419431      -0.49109529       0.00000000
