10
Lattice="16.28999089631971 0.0 0.0 0.0 16.28999089631971 0.0 0.0 0.0 34.56954931742767" Properties=species:S:1:pos:R:3:initial_magmoms:R:1 pbc="T T T"
Si       1.35728280       1.35694071      -1.35706299       0.00000000
Si      -1.35786924      -1.35697329      -1.35751239       0.00000000
Si       1.35728280      -1.35808101       1.35727040       0.00000000
Si      -1.35786924       1.35754344       1.35747782       0.00000000
Si       2.71122615      -0.00053757      -2.71492107       0.00000000
Si       2.71438641      -2.71462261      -0.00038027       0.00000000
Si      -0.00030951      -2.71492235       2.71412597       0.00000000
Si       2.71437012       2.71498914      -0.00020742       0.00000000
Si      -2.71494027      -0.00084708       2.71481736       0.00000000
Si      -0.00027693       2.71606428       2.71378028       0.00000000
