10
Lattice="16.28999089631971 0.0 0.0 0.0 16.28999089631971 0.0 0.0 0.0 34.56954931742767" Properties=species:S:1:pos:R:3:initial_magmoms:R:1 pbc="T T T"
Si      -1.33807689      -1.36083402      -1.37286128       0.00000000
Si       1.39867569      -1.30955310       1.39408699       0.00000000
Si       1.37326329       1.35769005      -1.37331068       0.00000000
Si      -1.57753989       1.21209003       1.48058006       0.00000000
Si      -0.15584643      -2.37594537       2.70942451       0.00000000
Si      -2.70086571      -2.70710967       0.00304212       0.00000000
Si      -2.69825931       2.71479366       0.00629166       0.00000000
Si      -2.69707014      -0.00302994      -2.73383063       0.00000000
Si       0.01759320       2.71388142      -2.73486771       0.00000000
Si       2.72886822       2.72098386      -0.00224702       0.00000000
