10
Lattice="16.28999089631971 0.0 0.0 0.0 16.28999089631971 0.0 0.0 0.0 34.56954931742767" Properties=species:S:1:pos:R:3:initial_magmoms:R:1 pbc="T T T"
Si       0.95975793      -1.73423340       1.22082432       0.00000000
Si      -1.17801135      -1.61217243      -1.27319721       0.00000000
Si       1.66557105       1.15935930      -1.30296161       0.00000000
Si       1.03377969      -0.01433520       2.85098690       0.00000000
Si      -2.29873077      -0.10946880      -2.74748561       0.00000000
Si       2.45509848       1.81552050       2.17093434       0.00000000
Si       0.40827627       2.59760340      -2.74776216       0.00000000
Si      -3.12618132      -2.21568435       0.08656220       0.00000000
Si       2.66282856       2.88491013       0.04061924       0.00000000
Si       0.39952854      -2.82426246      -2.75377727       0.00000000
