10
Lattice="16.28999089631971 0.0 0.0 0.0 16.28999089631971 0.0 0.0 0.0 34.56954931742767" Properties=species:S:1:pos:R:3:initial_magmoms:R:1 pbc="T T T"
Si      -2.25465003       0.09130545       0.50032537       0.00000000
Si       0.48863484       2.06824356       1.04417382       0.00000000
Si       0.32697288       0.11663640      -2.35239001       0.00000000
Si       0.48249351      -2.17137555       0.85926120       0.00000000
Si      -2.96451936      -1.92272499      -0.39699693       0.00000000
Si      -0.74495799       1.84958289       3.12567669       0.00000000
Si       2.80950372       2.13514659       1.18144958       0.00000000
Si       2.62619235       0.40154850      -2.63167755       0.00000000
Si      -2.53529415       0.43981371       2.76411357       0.00000000
Si      -3.21185043       1.95571224      -0.54294965       0.00000000
