10
Lattice="16.28999089631971 0.0 0.0 0.0 16.28999089631971 0.0 0.0 0.0 34.56954931742767" Properties=species:S:1:pos:R:3:initial_magmoms:R:1 pbc="T T T"
Si      -1.35617508       1.35713619      -1.36172988       0.00000000
Si       1.36008468      -1.35861858      -1.36162617       0.00000000
Si       1.36953288       1.35917244       1.37417492       0.00000000
Si      -1.36502055      -1.36513458       1.37835784       0.00000000
Si      -2.71353933       2.70917361      -0.00483974       0.00000000
Si       2.71526607       2.71153566      -0.00131364       0.00000000
Si      -2.71404432      -2.71541268      -0.00318040       0.00000000
Si       2.71598283      -2.71601541      -0.00338782       0.00000000
Si       0.00136836       2.71300176      -2.71906942       0.00000000
Si      -2.71326240      -0.00188964      -2.71882743       0.00000000
