10
Lattice="16.28999089631971 0.0 0.0 0.0 16.28999089631971 0.0 0.0 0.0 34.56954931742767" Properties=species:S:1:pos:R:3:initial_magmoms:R:1 pbc="T T T"
Si       2.32086888       0.06690303       0.13727576       0.00000000
Si      -0.48863484      -2.06824356      -1.04417382       0.00000000
Si      -0.38349918       1.77652224      -1.55210449       0.00000000
Si      -1.23359283      -0.21866067       2.08150287       0.00000000
Si      -2.74328487      -1.97693811      -0.54384845       0.00000000
Si      -2.70917361       2.08873638      -1.31146573       0.00000000
Si       3.06299241       2.23604685      -0.33677674       0.00000000
Si       3.20888565      -1.30798926      -1.58522214       0.00000000
Si       1.15712757       3.53046654      -0.95100883       0.00000000
Si      -3.02392899      -1.62842985       1.71993975       0.00000000
