10
Lattice="16.28999089631971 0.0 0.0 0.0 16.28999089631971 0.0 0.0 0.0 34.56954931742767" Properties=species:S:1:pos:R:3:initial_magmoms:R:1 pbc="T T T"
Si       0.74095065       0.43276014      -2.18510786       0.00000000
Si       1.86136056      -0.62178360       1.43404942       0.00000000
Si      -0.77714703       1.82113078       1.42699722       0.00000000
Si      -1.50887754      -1.95129832      -0.44183366       0.00000000
Si       2.52354906      -1.11775531      -1.73487380       0.00000000
Si      -2.15848853       0.48000440       2.73304732       0.00000000
Si       0.58077108      -2.08976332       2.76877843       0.00000000
Si      -3.32944468      -0.85434601       0.95681652       0.00000000
Si      -2.45242529       2.82811342      -0.08846353       0.00000000
Si      -0.28896831      -3.68445658       1.15614465       0.00000000
