10
Lattice="16.28999089631971 0.0 0.0 0.0 16.28999089631971 0.0 0.0 0.0 34.56954931742767" Properties=species:S:1:pos:R:3:initial_magmoms:R:1 pbc="T T T"
Si      -1.35677781      -1.33884252      -1.36938012       0.00000000
Si       1.35755973      -1.35597960       1.35979398       0.00000000
Si      -1.35788553       1.35884664       1.35979398       0.00000000
Si       1.36107837       1.35589815      -1.39761309       0.00000000
Si      -2.71384884      -2.71440270      -0.00262729       0.00000000
Si       2.71507059      -2.71494027      -0.00089881       0.00000000
Si      -2.71546155       2.71570168      -0.00017285       0.00000000
Si      -0.00052128      -2.71428867       2.71744465       0.00000000
Si       2.71454931       2.71748870      -0.00238530       0.00000000
Si       2.71503801       0.00096111       2.71747922       0.00000000
