10
Lattice="16.28999089631971 0.0 0.0 0.0 16.28999089631971 0.0 0.0 0.0 34.56954931742767" Properties=species:S:1:pos:R:3:initial_magmoms:R:1 pbc="T T T"
Si      -1.01346606      -1.66122162      -1.52676500       0.00000000
Si       1.65765411       1.04567287      -1.52057705       0.00000000
Si      -0.03187953      -1.24260120       2.14756531       0.00000000
Si      -0.32231394       2.14597034       2.22085280       0.00000000
Si       0.51587172       3.06228284       0.34393264       0.00000000
Si      -2.65263102       2.66764130      -0.29321908       0.00000000
Si       0.23825754       2.32524179      -3.00302386       0.00000000
Si       2.77628841       2.63315537      -0.13879682       0.00000000
Si      -2.47091607      -0.39488589      -2.99949776       0.00000000
Si       1.67192415      -3.01272147       2.03891316       0.00000000
