10
Lattice="16.28999089631971 0.0 0.0 0.0 16.28999089631971 0.0 0.0 0.0 34.56954931742767" Properties=species:S:1:pos:R:3:initial_magmoms:R:1 pbc="T T T"
Si       1.25998263      -1.43900973      -1.47404641       0.00000000
Si      -1.45745001       1.26633573      -1.47273276       0.00000000
Si      -0.89129106      -1.86395067       1.35640616       0.00000000
Si       1.01346606       1.66122162       1.52676500       0.00000000
Si       2.67112017       2.70689449       0.00618795       0.00000000
Si       0.98158653       0.41862042       3.67433031       0.00000000
Si      -2.78137089       2.66267057      -0.05589899       0.00000000
Si       2.60571582      -0.08664651      -2.84953497       0.00000000
Si       2.52607401      -2.93601186      -0.03902904       0.00000000
Si      -0.10798641       2.62910201      -2.85143630       0.00000000
