10
Lattice="16.28999089631971 0.0 0.0 0.0 16.28999089631971 0.0 0.0 0.0 34.56954931742767" Properties=species:S:1:pos:R:3:initial_magmoms:R:1 pbc="T T T"
Si       1.40686956      -0.10277361      -1.89932124       0.00000000
Si      -0.64417176      -2.16520164       0.79662114       0.00000000
Si      -2.14378029       1.11459130      -0.01282531       0.00000000
Si       1.92541284       0.71949672       1.27585907       0.00000000
Si       0.61318818      -2.09108214       2.80791321       0.00000000
Si       0.78584589       1.69531889       3.05131755       0.00000000
Si       2.66261679      -1.47504321       1.92618179       0.00000000
Si      -2.70355356       1.57636605       2.18573012       0.00000000
Si       1.92085164       2.16051894      -2.59976984       0.00000000
Si      -3.90876921      -0.58270959      -0.06523278       0.00000000
