10
Lattice="16.28999089631971 0.0 0.0 0.0 16.28999089631971 0.0 0.0 0.0 34.56954931742767" Properties=species:S:1:pos:R:3:initial_magmoms:R:1 pbc="T T T"
Si       1.79051535      -0.77370984      -1.33912138       0.00000000
Si      -0.34896438       2.24709147      -0.67300036       0.00000000
Si      -2.11458861      -1.03211811       0.31199036       0.00000000
Si       1.29751479      -0.32889510       2.01703062       0.00000000
Si       0.24988860      -2.52765414      -1.94021704       0.00000000
Si       2.42175285       1.69756461       1.71904094       0.00000000
Si       1.96089246       2.78747964      -0.49697212       0.00000000
Si      -2.07578583      -2.21544000      -1.69957827       0.00000000
Si      -1.41535665       3.20454829       1.18566707       0.00000000
Si       2.73909834       1.31531976      -2.17622348       0.00000000
