10
Lattice="16.28999089631971 0.0 0.0 0.0 16.28999089631971 0.0 0.0 0.0 34.56954931742767" Properties=species:S:1:pos:R:3:initial_magmoms:R:1 pbc="T T T"
Si      -1.35051397      -1.35684297       1.39766494       0.00000000
Si       1.36130255       1.36257705       1.39562534       0.00000000
Si       1.41946600      -1.32853095      -1.49301127       0.00000000
Si      -1.49005411       1.39075875      -1.48415801       0.00000000
Si      -2.69593765      -2.70883152       0.02240799       0.00000000
Si      -2.70084094       2.70705591       0.05630691       0.00000000
Si       2.71140472      -2.70528030       0.02650103       0.00000000
Si       2.71684558       2.71533123       0.01279765       0.00000000
Si      -2.70949093       0.00148239       2.75700952       0.00000000
Si       0.00570998      -2.71358820       2.75725151       0.00000000
