10
Lattice="16.28999089631971 0.0 0.0 0.0 16.28999089631971 0.0 0.0 0.0 34.56954931742767" Properties=species:S:1:pos:R:3:initial_magmoms:R:1 pbc="T T T"
Si      -1.35553977       1.35568638      -1.35661358       0.00000000
Si       1.35726651      -1.35870492      -1.35626789       0.00000000
Si      -1.35374787      -1.35910728       1.37697506       0.00000000
Si       1.35400851       1.36340784       1.38046658       0.00000000
Si      -2.71363707      -0.00102627      -2.71402226       0.00000000
Si       0.00140094       2.71446786      -2.71426425       0.00000000
Si       0.00107514      -2.71567562      -2.71384942       0.00000000
Si       2.71487979      -2.71472385       0.00494345       0.00000000
Si      -2.71345788      -2.71646867       0.00179762       0.00000000
Si       2.71644895      -0.00066789      -2.71398769       0.00000000
