10
Lattice="16.28999089631971 0.0 0.0 0.0 16.28999089631971 0.0 0.0 0.0 34.56954931742767" Properties=species:S:1:pos:R:3:initial_magmoms:R:1 pbc="T T T"
Si       1.36088289       1.35000117      -1.37348353       0.00000000
Si      -1.35560493      -1.36329381      -1.37106366       0.00000000
Si       1.37441988      -1.27531152       1.46782388       0.00000000
Si      -1.46282571       1.26263790       1.45306268       0.00000000
Si       2.70918990       2.70076797      -0.00055311       0.00000000
Si      -2.72012049       2.70088200       0.00826213       0.00000000
Si       2.71393029      -2.71681362       0.00535828       0.00000000
Si       0.00498474       2.70739800      -2.73172188       0.00000000
Si      -2.71127502      -0.00710244      -2.73262069       0.00000000
Si      -2.72886822      -2.72098386       0.00224702       0.00000000
