10
Lattice="16.28999089631971 0.0 0.0 0.0 16.28999089631971 0.0 0.0 0.0 34.56954931742767" Properties=species:S:1:pos:R:3:initial_magmoms:R:1 pbc="T T T"
Si       0.09738162      -0.65000358      -2.22513942       0.00000000
Si      -1.04241339       2.05341966       0.38914963       0.00000000
Si      -0.94649787      -1.83088197       1.16575499       0.00000000
Si       2.33960238       0.16470819       0.44031260       0.00000000
Si       1.65809394      -2.40337773      -1.60693183       0.00000000
Si       0.02891475       2.41212546       2.47977887       0.00000000
Si       0.52585749      -3.42674811       0.19130799       0.00000000
Si       2.83763655       2.39259375      -0.30991618       0.00000000
Si       0.54393939       0.38371095       3.69189165       0.00000000
Si       2.59493184      -0.17756100       2.74465090       0.00000000
