10
Lattice="16.28999089631971 0.0 0.0 0.0 16.28999089631971 0.0 0.0 0.0 34.56954931742767" Properties=species:S:1:pos:R:3:initial_magmoms:R:1 pbc="T T T"
Si       1.34150009       1.36088289       1.35682100       0.00000000
Si      -1.35923760       1.35694071      -1.36000140       0.00000000
Si       1.35478296      -1.36168110      -1.35996683       0.00000000
Si      -1.36904418      -1.36503684       1.37154764       0.00000000
Si       2.67005222      -0.05162301       2.67841561       0.00000000
Si      -0.07081263       2.57645898       2.82447204       0.00000000
Si       2.71599002       2.71248048       0.00013828       0.00000000
Si      -2.71806795       2.71174743       0.00069139       0.00000000
Si       2.71312298      -0.00166158      -2.71702982       0.00000000
Si      -0.00194449       2.71303434      -2.71720266       0.00000000
