10
Lattice="16.28999089631971 0.0 0.0 0.0 16.28999089631971 0.0 0.0 0.0 34.56954931742767" Properties=species:S:1:pos:R:3:initial_magmoms:R:1 pbc="T T T"
Si       1.44927243       1.12899474       1.43923485       0.00000000
Si       1.42866558      -1.22741892      -1.43964969       0.00000000
Si      -1.74609252      -0.93999816       1.35754696       0.00000000
Si      -1.26609138       1.49700213      -1.43501736       0.00000000
Si       0.18761193      -0.68688414       2.79422366       0.00000000
Si       2.77829208      -2.58644475      -0.03287566       0.00000000
Si       0.08035857      -2.57818572      -2.81258010       0.00000000
Si      -2.74335003      -2.66554899       0.01396611       0.00000000
Si      -3.41736507       1.07206119       1.39543521       0.00000000
Si       2.72689713       2.71407690       0.01327471       0.00000000
