10
Lattice="16.28999089631971 0.0 0.0 0.0 16.28999089631971 0.0 0.0 0.0 34.56954931742767" Properties=species:S:1:pos:R:3:initial_magmoms:R:1 pbc="T T T"
Si      -1.44927243      -1.12899474      -1.43923485       0.00000000
Si       1.61414745      -1.36373364       1.25200607       0.00000000
Si       1.27762470       1.58508216      -1.42596014       0.00000000
Si      -1.28995623       0.45551727       2.16547235       0.00000000
Si      -1.26166050      -1.81587888       1.35498881       0.00000000
Si       0.90621270       1.29598353       2.77213371       0.00000000
Si      -0.02060685      -2.35641366      -2.87888454       0.00000000
Si      -3.19536495      -2.06899290      -0.08168789       0.00000000
Si       2.96235672      -2.63124225      -0.18767819       0.00000000
Si       2.68993742       0.36950607      -2.89361117       0.00000000
