10
Lattice="16.28999089631971 0.0 0.0 0.0 16.28999089631971 0.0 0.0 0.0 34.56954931742767" Properties=species:S:1:pos:R:3:initial_magmoms:R:1 pbc="T T T"
Si       0.71197956      -1.95501177      -1.14629233       0.00000000
Si      -2.38708773      -0.34814988       0.15366173       0.00000000
Si       1.40203536       0.31273542       2.01454161       0.00000000
Si       0.47700771       1.24383924      -2.15562002       0.00000000
Si      -2.39880024       0.79169400      -2.05263728       0.00000000
Si       1.79959770       2.64432312      -0.65792803       0.00000000
Si      -0.14485068       1.10975625       3.63474816       0.00000000
Si      -0.19934073      -3.82560876      -0.05831886       0.00000000
Si       2.82381353       2.24178093       1.63081940       0.00000000
Si      -0.23092704       3.90355641      -0.63549238       0.00000000
