10
Lattice="16.28999089631971 0.0 0.0 0.0 16.28999089631971 0.0 0.0 0.0 34.56954931742767" Properties=species:S:1:pos:R:3:initial_magmoms:R:1 pbc="T T T"
Si      -0.91132029      -1.87059699       1.08797346       0.00000000
Si      -0.71197956       1.95501177       1.14629233       0.00000000
Si       2.41673390      -0.39252384       0.00632623       0.00000000
Si      -1.36991637      -0.80321103      -2.20826947       0.00000000
Si       1.11323742       1.93134240      -2.44901195       0.00000000
Si      -0.23497185       3.19885101      -1.00932770       0.00000000
Si       0.35986239      -2.74445775      -2.12001337       0.00000000
Si       0.66169491      -3.42054162       0.32654415       0.00000000
Si       2.44748942      -2.23358706       1.52337718       0.00000000
Si      -3.09906729       1.60686189       1.29995406       0.00000000
