10
Lattice="16.28999089631971 0.0 0.0 0.0 16.28999089631971 0.0 0.0 0.0 34.56954931742767" Properties=species:S:1:pos:R:3:initial_magmoms:R:1 pbc="T T T"
Si      -1.35966114      -1.35356868      -1.38426924       0.00000000
Si       1.35497430       1.36392467      -1.38302473       0.00000000
Si      -1.29425679       1.43997232       1.47145369       0.00000000
Si       1.28759418      -1.48885713       1.43951141       0.00000000
Si       2.69990690      -2.70443322      -0.02813963       0.00000000
Si      -2.70539433      -2.70593190      -0.00878067       0.00000000
Si      -2.71365336       2.71954124      -0.01099312       0.00000000
Si       2.72160192       2.71197779       0.00038027       0.00000000
Si      -0.00083079      -2.70837540      -2.74496203       0.00000000
Si       2.71449459       0.00586440      -2.74427064       0.00000000
