10
Lattice="16.28999089631971 0.0 0.0 0.0 16.28999089631971 0.0 0.0 0.0 34.56954931742767" Properties=species:S:1:pos:R:3:initial_magmoms:R:1 pbc="T T T"
Si       2.27084229       0.32031027      -0.70241907       0.00000000
Si      -0.24446403      -2.30426937      -0.68883322       0.00000000
Si      -0.22887450       0.25888068       2.42865047       0.00000000
Si      -1.20986156       1.73307681      -1.27451086       0.00000000
Si       0.25067052       2.56753206       2.68522581       0.00000000
Si      -2.75674760       2.53009764       0.34569569       0.00000000
Si       2.10139371       0.33482466      -3.14500108       0.00000000
Si      -2.56566590      -2.69084736      -1.01364889       0.00000000
Si       1.17845118      -1.32822144       3.49933915       0.00000000
Si       3.71286567      -1.21334436       0.40750608       0.00000000
