10
Lattice="16.28999089631971 0.0 0.0 0.0 16.28999089631971 0.0 0.0 0.0 34.56954931742767" Properties=species:S:1:pos:R:3:initial_magmoms:R:1 pbc="T T T"
Si       0.44075853      -0.31275171      -2.34105119       0.00000000
Si       0.52587378       2.27079342       0.62059290       0.00000000
Si      -2.33819818      -0.53719533       0.41514595       0.00000000
Si       1.27607715      -1.29945330       1.61643846       0.00000000
Si      -2.20293905      -2.12553549       2.24304646       0.00000000
Si       0.48490443       2.24925804       3.02196798       0.00000000
Si       2.75742459       2.61575046      -0.08369293       0.00000000
Si       0.03766248      -2.62888672      -2.79837201       0.00000000
Si       1.53816696       0.15859944       3.52298474       0.00000000
Si       3.51733680      -1.39971825       0.81656778       0.00000000
