10
Lattice="16.28999089631971 0.0 0.0 0.0 16.28999089631971 0.0 0.0 0.0 34.56954931742767" Properties=species:S:1:pos:R:3:initial_magmoms:R:1 pbc="T T T"
Si       2.23155081       0.34495704      -0.70428582       0.00000000
Si      -1.40732568       1.58710212      -1.07068868       0.00000000
Si      -0.04096935      -0.02153538       2.40137509       0.00000000
Si      -0.52587378      -2.27079342      -0.62059290       0.00000000
Si       1.01229318      -2.11219398       2.90239184       0.00000000
Si       3.45934440      -1.36575360       0.39454249       0.00000000
Si       0.75020337      -3.57024672       0.99584556       0.00000000
Si      -3.60607562       1.28958156      -0.18235447       0.00000000
Si      -1.17845118       1.32822144      -3.49933915       0.00000000
Si       3.12650712       2.36066535       0.25457030       0.00000000
