10
Lattice="16.28999089631971 0.0 0.0 0.0 16.28999089631971 0.0 0.0 0.0 34.56954931742767" Properties=species:S:1:pos:R:3:initial_magmoms:R:1 pbc="T T T"
Si      -1.40266674       1.32235704       1.30952983       0.00000000
Si      -1.35583299      -1.34560287      -1.37089081       0.00000000
Si       1.35632169       1.36946772      -1.36902406       0.00000000
Si       1.35365013      -1.33897284       1.52147585       0.00000000
Si       0.44176851       2.28400461       2.55590106       0.00000000
Si      -2.45879957      -0.26588538       2.69386821       0.00000000
Si       2.25236943       0.67303764       2.88538362       0.00000000
Si       2.71191033      -2.69801496       0.01175365       0.00000000
Si      -2.71904209      -2.70135441       0.00549656       0.00000000
Si      -0.00470781      -2.70093087      -2.73002797       0.00000000
