10
Lattice="16.28999089631971 0.0 0.0 0.0 16.28999089631971 0.0 0.0 0.0 34.56954931742767" Properties=species:S:1:pos:R:3:initial_magmoms:R:1 pbc="T T T"
Si       1.35112518      -1.35532800      -1.35913716       0.00000000
Si       1.35583299       1.34560287       1.37089081       0.00000000
Si      -1.36210301       1.35790182      -1.35796180       0.00000000
Si      -1.36320910      -1.35575154       1.37638738       0.00000000
Si      -0.04683375       2.66795991       2.68042064       0.00000000
Si       2.70995553      -2.70770751       0.00252358       0.00000000
Si       2.71091664       0.00255753      -2.71509392       0.00000000
Si       2.71215468       2.71507059       0.00186676       0.00000000
Si      -0.00377928      -2.71213839      -2.71516306       0.00000000
Si      -2.71963943      -2.71148679       0.00024199       0.00000000
