10
Lattice="16.28999089631971 0.0 0.0 0.0 16.28999089631971 0.0 0.0 0.0 34.56954931742767" Properties=species:S:1:pos:R:3:initial_magmoms:R:1 pbc="T T T"
Si       1.35624395       1.35685926       1.35709756       0.00000000
Si       1.35730606      -1.35744733      -1.35765067       0.00000000
Si      -1.35743941       1.35752715      -1.35744325       0.00000000
Si      -1.35918244      -1.35803703       1.35771981       0.00000000
Si      -0.00090595       2.71480995      -2.71443710       0.00000000
Si      -2.71483624       0.00089595      -2.71450624       0.00000000
Si       0.00152948      -2.71433506      -2.71526677       0.00000000
Si       2.71472569       0.00052128      -2.71509392       0.00000000
Si       2.71497004       2.71497285      -0.00017285       0.00000000
Si       2.71529584      -2.71481483      -0.00024199       0.00000000
