10
Lattice="16.28999089631971 0.0 0.0 0.0 16.28999089631971 0.0 0.0 0.0 34.56954931742767" Properties=species:S:1:pos:R:3:initial_magmoms:R:1 pbc="T T T"
Si       1.25989303      -1.41553584       1.56104073       0.00000000
Si      -1.83938439      -0.92475072      -1.34996382       0.00000000
Si      -1.43136876       1.31015583       1.55343888       0.00000000
Si       1.76975374       1.07189829      -1.46570274       0.00000000
Si       2.63949313       2.66659155       0.14693104       0.00000000
Si       3.50750578      -0.86079618      -1.08032253       0.00000000
Si      -2.69346909       2.66155794       0.00164897       0.00000000
Si       2.69411350      -2.69904123       0.14327012       0.00000000
Si      -3.67876974       0.74626119      -1.14254641       0.00000000
Si       2.62090624      -0.05708016       2.94290046       0.00000000
