10
Lattice="16.28999089631971 0.0 0.0 0.0 16.28999089631971 0.0 0.0 0.0 34.56954931742767" Properties=species:S:1:pos:R:3:initial_magmoms:R:1 pbc="T T T"
Si      -1.35715235      -1.35762489      -1.35723583       0.00000000
Si      -1.35767064       1.35708732       1.35744325       0.00000000
Si       1.35739683      -1.35760860       1.35761610       0.00000000
Si       1.35754344       1.35918873      -1.35737411       0.00000000
Si      -0.00017430       2.71179630      -2.71523220       0.00000000
Si      -2.71452392       2.71464705       0.00003457       0.00000000
Si       2.71469592      -2.71471221       0.00017285       0.00000000
Si       2.71482624       2.71464705       0.00020742       0.00000000
Si      -2.71496375       0.00099369       2.71464452       0.00000000
Si       2.71464705      -0.00053757       2.71519763       0.00000000
