10
Lattice="16.28999089631971 0.0 0.0 0.0 16.28999089631971 0.0 0.0 0.0 34.56954931742767" Properties=species:S:1:pos:R:3:initial_magmoms:R:1 pbc="T T T"
Si       1.35438318      -1.35707103      -1.35958656       0.00000000
Si      -1.35990223       1.35870003      -1.35944829       0.00000000
Si      -1.37448993      -1.35159759       1.35668272       0.00000000
Si       1.35003375       1.36093176       1.37604168       0.00000000
Si       2.70961344       2.71819311      -0.00003457       0.00000000
Si      -2.71599002      -2.71248048      -0.00013828       0.00000000
Si       2.71207323       0.00086337      -2.71699525       0.00000000
Si       2.71305063      -2.71699281      -0.00027656       0.00000000
Si      -0.00286704      -2.71414206      -2.71716809       0.00000000
Si      -0.00255753       2.71600143      -2.71737551       0.00000000
