10
Lattice="10.86 0.0 0.0 0.0 10.86 0.0 0.0 0.0 10.86" Properties=species:S:1:pos:R:3:initial_magmoms:R:1 pbc="T T T"
Si      -1.21894812       1.49089338      -1.18615092       0.00000000
Si      -1.21894812      -1.22410662       1.52884908       0.00000000
Si       1.77672858      -0.31270284      -1.71232878       0.00000000
Si       1.49605188       1.49089338       1.52884908       0.00000000
Si       0.13838898      -2.23788762      -2.45774832       0.00000000
Si       2.70178338      -2.12452008      -0.10075908       0.00000000
Si      -2.57644812       0.13339338      -2.54365092       0.00000000
Si      -2.57644812      -2.58160662       0.17134908       0.00000000
Si       0.30783756       2.70225036      -2.60596560       0.00000000
Si      -2.57644812       2.84839338       0.17134908       0.00000000
