10
Lattice="10.86 0.0 0.0 0.0 10.86 0.0 0.0 0.0 10.86" Properties=species:S:1:pos:R:3:initial_magmoms:R:1 pbc="T T T"
Si       1.41921738      -1.46529636      -1.22432382       0.00000000
Si       1.41921738       1.24970364       1.49067618       0.00000000
Si      -1.29578262      -1.46529636       1.49067618       0.00000000
Si      -0.08590260       2.70857088      -2.47054140       0.00000000
Si      -2.80505112      -2.36570982      -0.13893198       0.00000000
Si       2.77671738      -0.10779636      -2.58182382       0.00000000
Si      -2.62855440       2.74345320       0.09542682       0.00000000
Si       2.77671738       2.60720364       0.13317618       0.00000000
Si       0.06171738       2.60720364       2.84817618       0.00000000
Si      -2.65328262      -0.10779636       2.84817618       0.00000000
