10
Lattice="10.86 0.0 0.0 0.0 10.86 0.0 0.0 0.0 10.86" Properties=species:S:1:pos:R:3:initial_magmoms:R:1 pbc="T T T"
Si       1.13561934      -1.13736780      -1.39442400       0.00000000
Si       1.13561934       1.57763220       1.32057600       0.00000000
Si      -1.57938066      -1.13736780       1.32057600       0.00000000
Si       2.49311934      -2.49486780      -0.03692400       0.00000000
Si       2.49311934       0.22013220       2.67807600       0.00000000
Si      -0.22188066      -2.49486780       2.67807600       0.00000000
Si       2.49311934       0.22013220      -2.75192400       0.00000000
Si      -0.22188066      -2.49486780      -2.75192400       0.00000000
Si       2.49311934       2.93513220      -0.03692400       0.00000000
Si      -2.93688066      -2.49486780      -0.03692400       0.00000000
