10
Lattice="10.86 0.0 0.0 0.0 10.86 0.0 0.0 0.0 10.86" Properties=species:S:1:pos:R:3:initial_magmoms:R:1 pbc="T T T"
Si       1.36055166       1.21309458       1.41929340       0.00000000
Si       1.36055166      -1.50190542      -1.29570660       0.00000000
Si      -1.35444834      -1.50190542       1.41929340       0.00000000
Si       0.14544798       2.48470284      -2.52630750       0.00000000
Si      -2.62316784       2.62286376       0.14364522       0.00000000
Si       2.71805166       2.57059458       0.06179340       0.00000000
Si       0.00305166       2.57059458       2.77679340       0.00000000
Si       2.71805166      -0.14440542      -2.65320660       0.00000000
Si      -2.71194834      -0.14440542       2.77679340       0.00000000
Si       2.71805166      -0.14440542       2.77679340       0.00000000
