10
Lattice="10.86 0.0 0.0 0.0 10.86 0.0 0.0 0.0 10.86" Properties=species:S:1:pos:R:3:initial_magmoms:R:1 pbc="T T T"
Si       1.31478762      -1.27404090      -1.43307474       0.00000000
Si       1.31478762       1.44095910       1.28192526       0.00000000
Si      -1.40021238       1.44095910      -1.43307474       0.00000000
Si      -0.17899452      -2.50307796       2.55549918       0.00000000
Si       2.67228762      -2.63154090      -0.07557474       0.00000000
Si       2.67228762       0.08345910       2.63942526       0.00000000
Si      -2.74848138       0.03276462       2.57523180       0.00000000
Si       0.03947610      -2.47543926      -2.93978028       0.00000000
Si      -0.04271238       2.79845910       2.63942526       0.00000000
Si       2.67228762       0.08345910      -2.79057474       0.00000000
