10
Lattice="16.28999089631971 0.0 0.0 0.0 16.28999089631971 0.0 0.0 0.0 34.529650657227435" Properties=species:S:1:pos:R:3:initial_magmoms:R:1 pbc="T T T"
Si      -0.09286766       1.16502822      -2.01863904       0.00000000
Si       1.00775967      -2.09326500      -0.26877895       0.00000000
Si      -1.96857712      -0.35504055       1.24776415       0.00000000
Si       1.27722885       1.23865902       1.55559616       0.00000000
Si       2.32741257       1.16826993      -2.14546651       0.00000000
Si      -1.86844249       2.69374698      -1.31993116       0.00000000
Si      -2.10047725       1.70645895       2.46576373       0.00000000
Si       2.72037624      -1.23945723      -2.21121100       0.00000000
Si      -3.64514392      -0.73932165      -0.32299053       0.00000000
Si       1.11485013       0.10352295       3.62502834       0.00000000
