10
Lattice="16.28999089631971 0.0 0.0 0.0 16.28999089631971 0.0 0.0 0.0 34.529650657227435" Properties=species:S:1:pos:R:3:initial_magmoms:R:1 pbc="T T T"
Si      -2.13751583       0.65590056       0.74981178       0.00000000
Si       0.16237872       1.13513607      -2.06943218       0.00000000
Si       1.54287477       1.29754737       1.27535336       0.00000000
Si       0.47177469      -2.32849260      -0.25299889       0.00000000
Si       0.06051735       2.91308191       2.15579088       0.00000000
Si       2.44433079       1.36099692      -2.30737614       0.00000000
Si       1.66806342      -2.44455885      -2.27377877       0.00000000
Si      -3.21532739       1.60293600      -1.15926461       0.00000000
Si      -1.11485013      -0.10352295      -3.62502834       0.00000000
Si      -1.90342853       1.81737756       2.76814005       0.00000000
