10
Lattice="16.28999089631971 0.0 0.0 0.0 16.28999089631971 0.0 0.0 0.0 34.529650657227435" Properties=species:S:1:pos:R:3:initial_magmoms:R:1 pbc="T T T"
Si       1.43506755       1.31012325       1.43177419       0.00000000
Si      -1.30054147      -1.36518345       1.50919316       0.00000000
Si      -1.45968174       1.63616760      -1.20691555       0.00000000
Si       0.21976839      -1.60194231      -1.92264655       0.00000000
Si      -1.05057468       0.07675848      -3.16512767       0.00000000
Si       2.48676624      -2.81989674      -0.03877682       0.00000000
Si      -1.29480088      -3.32257356      -1.27711437       0.00000000
Si       0.01661580       2.60410987       2.91458871       0.00000000
Si      -2.84435522      -2.70756090       0.29186933       0.00000000
Si       2.46277107       3.10969162       0.13055668       0.00000000
