10
Lattice="16.28999089631971 0.0 0.0 0.0 16.28999089631971 0.0 0.0 0.0 34.529650657227435" Properties=species:S:1:pos:R:3:initial_magmoms:R:1 pbc="T T T"
Si      -1.33260345      -1.36037857      -1.33930231       0.00000000
Si       1.29994200      -1.37704843       1.35894969       0.00000000
Si      -1.31999499       1.30367893       1.44575728       0.00000000
Si       1.38313503       1.35544855      -1.33633276       0.00000000
Si       0.50468049       2.10493516       2.78526677       0.00000000
Si       2.25114768       0.40038214       2.73088254       0.00000000
Si      -2.68729614      -0.00567055      -2.69448827       0.00000000
Si      -2.68262091      -2.71652107       0.05165639       0.00000000
Si      -2.67985161       2.72656156       0.05421158       0.00000000
Si       0.02389743       2.71284538      -2.69759594       0.00000000
