10
Lattice="16.28999089631971 0.0 0.0 0.0 16.28999089631971 0.0 0.0 0.0 34.529650657227435" Properties=species:S:1:pos:R:3:initial_magmoms:R:1 pbc="T T T"
Si      -0.03425787      -2.16707825      -0.87087281       0.00000000
Si       2.08349100       0.67285845       0.83057668       0.00000000
Si      -0.13890483       1.47421242      -1.83431966       0.00000000
Si      -1.73105685       0.30441123       1.68625643       0.00000000
Si       0.91971711       3.33185886      -0.84145353       0.00000000
Si      -2.17605078      -2.81058605      -0.14985877       0.00000000
Si      -3.41943390      -0.94309000       0.61580213       0.00000000
Si       1.56569706       2.93676120       1.46561184       0.00000000
Si      -2.43874332       1.98345411      -2.05824457       0.00000000
Si       2.42475021      -0.15555321       2.96713454       0.00000000
