10
Lattice="16.28999089631971 0.0 0.0 0.0 16.28999089631971 0.0 0.0 0.0 34.529650657227435" Properties=species:S:1:pos:R:3:initial_magmoms:R:1 pbc="T T T"
Si       1.40514282      -1.29279069      -1.37666341       0.00000000
Si      -1.32737436       1.39657428      -1.38778197       0.00000000
Si       0.80757675       1.77420906       1.37238173       0.00000000
Si      -0.84325185      -1.90335618       1.39026810       0.00000000
Si      -1.09885824       3.35267748       1.36298966       0.00000000
Si      -2.66792733      -2.70461241       0.05075861       0.00000000
Si       0.03520269      -2.65284279      -2.73133142       0.00000000
Si       2.66014071      -2.74452291      -0.03366643       0.00000000
Si      -2.67387318       0.05325201      -2.73716694       0.00000000
Si       2.67045228       2.74527225       0.14257301       0.00000000
