10
Lattice="16.28999089631971 0.0 0.0 0.0 16.28999089631971 0.0 0.0 0.0 34.529650657227435" Properties=species:S:1:pos:R:3:initial_magmoms:R:1 pbc="T T T"
Si      -0.46436274       2.30006655      -0.46542542       0.00000000
Si      -0.24278616      -1.64416599      -1.73325131       0.00000000
Si       1.81623726       0.22563279       1.63774225       0.00000000
Si      -1.19355201      -1.84365333       1.77030165       0.00000000
Si       3.23854974      -0.47680830      -0.13345717       0.00000000
Si       0.47227968      -0.97184511       3.26182943       0.00000000
Si       0.36546615      -3.54594204      -0.31401282       0.00000000
Si      -2.96805429      -0.23366376       2.06049905       0.00000000
Si      -1.04400981       3.18770865       1.74695959       0.00000000
Si      -2.46889611      -1.47957183      -2.46852611       0.00000000
