10
Lattice="16.28999089631971 0.0 0.0 0.0 16.28999089631971 0.0 0.0 0.0 34.529650657227435" Properties=species:S:1:pos:R:3:initial_magmoms:R:1 pbc="T T T"
Si      -0.60825231       1.90177605      -1.41923849       0.00000000
Si      -1.12055652      -1.98223236      -0.91817845       0.00000000
Si       1.85241735      -1.16028783      -1.20152893       0.00000000
Si       1.26680814      -1.18806228       2.06894876       0.00000000
Si      -1.55901816       1.70228871       2.08431447       0.00000000
Si       0.28077444      -1.85953608      -2.82014173       0.00000000
Si      -0.36546615       3.54594204       0.31401282       0.00000000
Si       2.11840047      -2.88574581       0.48006600       0.00000000
Si       0.86672574       1.90270458      -3.26381346       0.00000000
Si      -0.07071489      -3.92983544       0.27775667       0.00000000
