10
Lattice="16.28999089631971 0.0 0.0 0.0 16.28999089631971 0.0 0.0 0.0 34.529650657227435" Properties=species:S:1:pos:R:3:initial_magmoms:R:1 pbc="T T T"
Si      -1.98136899      -1.21901328       0.15389874       0.00000000
Si       2.12530743      -0.99961956       0.20047926       0.00000000
Si       0.30258675       0.14628420      -2.39798199       0.00000000
Si      -0.34042842       1.87488126       1.50245500       0.00000000
Si       3.46607217       0.96646941      -0.33459250       0.00000000
Si      -0.66191157       3.62051766      -0.04191902       0.00000000
Si      -3.33627345      -0.50863896      -1.68546225       0.00000000
Si      -1.46442213      -3.48505002      -0.17150887       0.00000000
Si       2.35486611      -2.60755659      -1.53667390       0.00000000
Si       0.76452228       2.35261809      -2.94061575       0.00000000
