10
Lattice="16.28999089631971 0.0 0.0 0.0 16.28999089631971 0.0 0.0 0.0 34.529650657227435" Properties=species:S:1:pos:R:3:initial_magmoms:R:1 pbc="T T T"
Si      -1.95621723      -1.04888052       0.96938595       0.00000000
Si       0.56117421       2.19849840       0.86862838       0.00000000
Si      -0.01531260      -0.12825117      -2.43299507       0.00000000
Si       1.91425419      -1.55447325       0.42271222       0.00000000
Si       0.55177488       2.12037156      -2.61714180       0.00000000
Si       2.09517093       2.78790318      -0.91023663       0.00000000
Si      -1.43457885       3.32788410       0.48224137       0.00000000
Si       3.04984638      -1.57488462      -1.60766690       0.00000000
Si       3.58103070      -0.30678957       1.42231164       0.00000000
Si      -1.49185449      -3.34894707       1.43481138       0.00000000
