10
Lattice="16.28999089631971 0.0 0.0 0.0 16.28999089631971 0.0 0.0 0.0 34.529650657227435" Properties=species:S:1:pos:R:3:initial_magmoms:R:1 pbc="T T T"
Si       1.33260345       1.36037857       1.33930231       0.00000000
Si      -1.35469269       1.35470802      -1.35518596       0.00000000
Si       1.35707103      -1.35762489      -1.35511690       0.00000000
Si      -1.35001746      -1.35614250       1.39095869       0.00000000
Si       2.63254545      -0.01666986       2.69825200       0.00000000
Si      -2.71101438      -2.71492398       0.00728576       0.00000000
Si      -2.71409319      -0.00096453      -2.71258181       0.00000000
Si       0.00087966      -2.71511946      -2.71244369       0.00000000
Si       0.00213399       2.71452392      -2.71368676       0.00000000
Si       2.71590138      -0.00077876      -2.71296164       0.00000000
