10
Lattice="16.28999089631971 0.0 0.0 0.0 16.28999089631971 0.0 0.0 0.0 34.529650657227435" Properties=species:S:1:pos:R:3:initial_magmoms:R:1 pbc="T T T"
Si      -1.38313503      -1.35544855       1.33633276       0.00000000
Si       1.35726651      -1.36104416      -1.35853533       0.00000000
Si      -1.35923760       1.35739683      -1.36126318       0.00000000
Si       1.36994013       1.36005210       1.35466801       0.00000000
Si       2.62493802      -0.09168012       2.69766499       0.00000000
Si      -0.03520269       2.65284279       2.73133142       0.00000000
Si      -2.70907587       2.70609480      -0.00583551       0.00000000
Si       2.71451673       2.71362078       0.00155384       0.00000000
Si       0.00008145       2.71243161      -2.71658725       0.00000000
Si      -0.08319303      -2.73249698       2.69528245       0.00000000
