10
Lattice="16.28999089631971 0.0 0.0 0.0 16.28999089631971 0.0 0.0 0.0 34.529650657227435" Properties=species:S:1:pos:R:3:initial_magmoms:R:1 pbc="T T T"
Si      -0.45126558      -1.82413139      -1.52179161       0.00000000
Si       0.76093848       1.83804957      -1.38028903       0.00000000
Si       1.46072430      -0.76390326       1.78235250       0.00000000
Si      -2.00469627       0.38271726       1.32638821       0.00000000
Si       2.64404619       2.65067622      -0.17396048       0.00000000
Si      -1.66343706      -0.44569440       3.46294607       0.00000000
Si       0.65754585       0.06735915       3.82761391       0.00000000
Si       1.18110645      -3.13666298       1.97164415       0.00000000
Si      -1.07069283       3.55736133      -1.27811573       0.00000000
Si      -1.46761497      -1.05006969      -3.52969192       0.00000000
