10
Lattice="16.28999089631971 0.0 0.0 0.0 16.28999089631971 0.0 0.0 0.0 34.529650657227435" Properties=species:S:1:pos:R:3:initial_magmoms:R:1 pbc="T T T"
Si       0.71270379      -1.10668414      -1.92754977       0.00000000
Si      -1.91195730      -1.20258337       0.67912955       0.00000000
Si       0.09589923       2.31989197      -0.53272375       0.00000000
Si       1.25296164       0.35557372       2.00696801       0.00000000
Si      -0.29084166       1.95258505       2.76820911       0.00000000
Si      -1.57141485       2.84881198       1.01562118       0.00000000
Si       0.37175409      -3.32463280      -1.29144419       0.00000000
Si       2.94044274      -0.37107661      -2.02402566       0.00000000
Si       3.27430629       1.16879659       1.25211489       0.00000000
Si       2.41688214       2.83294552      -0.16805590       0.00000000
