10
Lattice="16.28999089631971 0.0 0.0 0.0 16.28999089631971 0.0 0.0 0.0 34.529650657227435" Properties=species:S:1:pos:R:3:initial_magmoms:R:1 pbc="T T T"
Si       1.54380330      -1.59701133      -0.76124110       0.00000000
Si      -1.28057319       0.89622693      -1.75258793       0.00000000
Si      -1.57806117      -1.39813486       1.03727129       0.00000000
Si       0.64210293       1.86533532       1.31098798       0.00000000
Si       0.38674089       0.36730692      -3.30093286       0.00000000
Si       0.29084166      -1.95258505      -2.76820911       0.00000000
Si      -3.48889446      -0.18249687       0.51998230       0.00000000
Si      -1.35275418       2.01121227       2.59297104       0.00000000
Si       1.39510818      -1.41309886       2.95767341       0.00000000
Si      -1.60888185       3.08697129      -1.02984741       0.00000000
