10
Lattice="16.28999089631971 0.0 0.0 0.0 16.28999089631971 0.0 0.0 0.0 34.529650657227435" Properties=species:S:1:pos:R:3:initial_magmoms:R:1 pbc="T T T"
Si      -1.90195524      -1.02907188       0.85015500       0.00000000
Si      -0.80018109       2.19722778      -0.10673121       0.00000000
Si       1.52712234       0.26666730       1.87710192       0.00000000
Si       0.35942256      -1.05572232      -2.16521748       0.00000000
Si       2.73391812       2.04564933       0.74587540       0.00000000
Si       1.25323857       3.25640358      -0.75613071       0.00000000
Si      -2.88764685       2.03392053      -1.21212953       0.00000000
Si      -1.27848807      -0.12422754      -3.62737636       0.00000000
Si      -3.47359815      -1.72832013      -0.76845780       0.00000000
Si      -0.52548282      -3.40266172      -1.98069093       0.00000000
