10
Lattice="16.28999089631971 0.0 0.0 0.0 16.28999089631971 0.0 0.0 0.0 34.529650657227435" Properties=species:S:1:pos:R:3:initial_magmoms:R:1 pbc="T T T"
Si      -0.80757675      -1.77420906      -1.37238173       0.00000000
Si       0.49256073      -0.77468724       2.21507833       0.00000000
Si       1.86287553       0.97106319      -1.22980873       0.00000000
Si      -1.90643499       1.57846842      -0.00939207       0.00000000
Si      -2.13495111      -0.37763478      -2.76016370       0.00000000
Si       0.58712418       2.34929493      -2.73195296       0.00000000
Si      -2.89802358       0.53846595       2.25851665       0.00000000
Si      -1.60521660      -1.29033090       3.14755206       0.00000000
Si      -0.76652595       3.57497082      -1.23188051       0.00000000
Si       2.87125911       2.75095746      -0.10438319       0.00000000
