10
Lattice="16.28999089631971 0.0 0.0 0.0 16.28999089631971 0.0 0.0 0.0 34.529650657227435" Properties=species:S:1:pos:R:3:initial_magmoms:R:1 pbc="T T T"
Si       1.35365013      -1.22567589      -1.50007245       0.00000000
Si       1.85367168       0.83730600       1.23574783       0.00000000
Si      -1.36313091       1.48543623      -1.47400255       0.00000000
Si      -1.13990904      -1.99650240       1.22248844       0.00000000
Si       2.62940148      -2.60390763       0.00207178       0.00000000
Si       2.64473037       2.70011637      -0.09060585       0.00000000
Si      -0.00148239      -2.56940541      -2.87027881       0.00000000
Si       0.76652595      -3.57497082       1.23188051       0.00000000
Si       3.63778506      -0.82401336       1.12749731       0.00000000
Si      -2.73452085       2.79766089       0.01743748       0.00000000
