10
Lattice="16.28999089631971 0.0 0.0 0.0 16.28999089631971 0.0 0.0 0.0 34.529650657227435" Properties=species:S:1:pos:R:3:initial_magmoms:R:1 pbc="T T T"
Si      -1.85367168      -0.83730600      -1.23574783       0.00000000
Si       0.79105869       1.86281037      -1.32635368       0.00000000
Si      -0.24138522       0.40669614       2.38527507       0.00000000
Si       1.78411338      -1.66131936      -0.10825052       0.00000000
Si      -0.99838152       2.62060488       1.80051511       0.00000000
Si      -0.50002155      -2.06298189      -2.73582028       0.00000000
Si       2.21407164       0.65700828      -2.75301606       0.00000000
Si       0.77572980      -3.44121363      -1.23367605       0.00000000
Si       3.53957265      -0.67135977      -1.31526966       0.00000000
Si       2.66434353       2.83257036      -0.03995083       0.00000000
