10
Lattice="16.28999089631971 0.0 0.0 0.0 16.28999089631971 0.0 0.0 0.0 34.529650657227435" Properties=species:S:1:pos:R:3:initial_magmoms:R:1 pbc="T T T"
Si       1.19682630       0.67048011      -1.87886293       0.00000000
Si      -2.03460471      -0.40523004      -1.15926461       0.00000000
Si      -0.53651115       1.92599928       1.36613186       0.00000000
Si       1.18985418      -1.97415252       0.86676378       0.00000000
Si      -0.08640216      -2.35929699       2.84838700       0.00000000
Si       1.77189588      -1.31364189      -2.99631211       0.00000000
Si       3.03982803       1.92686265      -1.02960570       0.00000000
Si      -2.35608786       1.34040636      -2.70363863       0.00000000
Si      -3.83295555      -0.14413392       0.41729106       0.00000000
Si      -1.69417629      -2.28011130      -2.66171961       0.00000000
