10
Lattice="16.28999089631971 0.0 0.0 0.0 16.28999089631971 0.0 0.0 0.0 34.529650657227435" Properties=species:S:1:pos:R:3:initial_magmoms:R:1 pbc="T T T"
Si       2.16740079      -0.76818753       0.21833110       0.00000000
Si      -0.57506958       1.98412200       1.11744918       0.00000000
Si       0.42130827       0.83704536      -2.21711558       0.00000000
Si      -1.34076474      -1.96608897       0.53507177       0.00000000
Si      -1.98234639       2.66792733      -0.70910130       0.00000000
Si       0.82852569      -1.23685083      -3.18038978       0.00000000
Si       2.31515109      -2.22252615      -1.59765330       0.00000000
Si      -3.46607217      -0.96646941       0.33459250       0.00000000
Si      -1.77189588       1.31364189       2.99631211       0.00000000
Si      -3.16348542      -0.82018521      -2.06338949       0.00000000
