10
Lattice="16.28999089631971 0.0 0.0 0.0 16.28999089631971 0.0 0.0 0.0 34.529650657227435" Properties=species:S:1:pos:R:3:initial_magmoms:R:1 pbc="T T T"
Si      -1.76466312      -1.06103286      -1.17089455       0.00000000
Si      -1.31810535       1.34280099       1.44063308       0.00000000
Si       1.37425698      -1.39277871       1.42743239       0.00000000
Si       1.35438318       1.28088270      -1.59817957       0.00000000
Si       2.58514155       2.55533085       0.07699426       0.00000000
Si      -0.88210350      -1.53844389      -3.27659777       0.00000000
Si      -2.62775619       2.65784382      -0.06787152       0.00000000
Si      -3.53879073       0.69146163      -1.38488980       0.00000000
Si      -2.68325622      -0.02744865       2.80554259       0.00000000
Si       0.03002247       2.68939755       2.81679926       0.00000000
