10
Lattice="16.28999089631971 0.0 0.0 0.0 16.28999089631971 0.0 0.0 0.0 34.529650657227435" Properties=species:S:1:pos:R:3:initial_magmoms:R:1 pbc="T T T"
Si       1.42016220      -1.24991541       1.51353902       0.00000000
Si      -1.45889982       1.50812820       1.39841710       0.00000000
Si       0.52957161       1.62072291      -1.86739908       0.00000000
Si      -0.50148765      -2.07068706      -1.44952102       0.00000000
Si      -1.79854632       1.32240591      -2.35464725       0.00000000
Si      -2.30218425      -0.97454925      -2.49742744       0.00000000
Si       2.62773990      -2.83400388       0.17092187       0.00000000
Si       1.24502841       3.71808566      -0.61297070       0.00000000
Si      -2.56197717       0.12704571       3.04384707       0.00000000
Si       0.06577902      -2.53079811       3.11171859       0.00000000
