10
Lattice="16.28999089631971 0.0 0.0 0.0 16.28999089631971 0.0 0.0 0.0 34.529650657227435" Properties=species:S:1:pos:R:3:initial_magmoms:R:1 pbc="T T T"
Si      -1.06880319      -1.75665237       1.18724987       0.00000000
Si       1.80853928       1.05653519       1.15453991       0.00000000
Si      -1.72950930       1.84538333      -0.26496588       0.00000000
Si       1.69059968      -1.24881162      -1.57502156       0.00000000
Si       2.17784987       1.07168326      -2.01886593       0.00000000
Si      -2.29039029      -0.27210182       2.55171395       0.00000000
Si       0.03567510       2.04496841      -2.89239753       0.00000000
Si       0.46195718       2.45866925       2.54466299       0.00000000
Si      -2.29956156      -3.03110052      -0.48792396       0.00000000
Si      -3.63239307       1.02544247       0.99592788       0.00000000
