10
Lattice="16.28999089631971 0.0 0.0 0.0 16.28999089631971 0.0 0.0 0.0 34.529650657227435" Properties=species:S:1:pos:R:3:initial_magmoms:R:1 pbc="T T T"
Si      -1.35304740       1.35826183       1.36053806       0.00000000
Si      -1.35718506      -1.35652138      -1.35832816       0.00000000
Si       1.36000323      -1.35783959       1.35611826       0.00000000
Si       1.35765588       1.35886456      -1.35781021       0.00000000
Si       2.71326959      -2.71431052      -0.00165742       0.00000000
Si       0.00055386      -2.71403359      -2.71548230       0.00000000
Si      -2.71446786       0.00068092      -2.71520607       0.00000000
Si      -2.71539639      -2.71470148      -0.00151931       0.00000000
Si       2.71507941       2.71595188      -0.00086324       0.00000000
Si       2.71554367       0.00094645      -2.71572401       0.00000000
