10
Lattice="16.28999089631971 0.0 0.0 0.0 16.28999089631971 0.0 0.0 0.0 34.529650657227435" Properties=species:S:1:pos:R:3:initial_magmoms:R:1 pbc="T T T"
Si      -1.15755111       1.51438356      -1.31202387       0.00000000
Si       1.09182163       0.24350292       2.07288515       0.00000000
Si       1.55168833      -1.22588114      -1.30463452       0.00000000
Si      -1.98879723      -0.66183012       1.38097962       0.00000000
Si      -0.81458145      -0.69533865       3.40203573       0.00000000
Si      -2.53377918      -2.62613438       0.14077746       0.00000000
Si      -2.50137837       0.14274927      -2.67608395       0.00000000
Si       0.21167226      -2.57335215      -2.68050375       0.00000000
Si      -2.55148641       2.76947919       0.17030033       0.00000000
Si       0.89300055       2.68889256       2.51296579       0.00000000
