10
Lattice="16.28999089631971 0.0 0.0 0.0 16.28999089631971 0.0 0.0 0.0 34.529650657227435" Properties=species:S:1:pos:R:3:initial_magmoms:R:1 pbc="T T T"
Si      -1.73371212      -1.51863918      -0.58444919       0.00000000
Si      -0.09984141       0.90321860       2.22084478       0.00000000
Si      -0.96743052       1.83859040      -1.24023669       0.00000000
Si       2.36686274      -0.60068398      -0.46639225       0.00000000
Si      -2.61021186       0.79515074       2.49880863       0.00000000
Si       2.04233336      -0.07006655       3.09437637       0.00000000
Si       3.43832120       0.61262129       1.32787299       0.00000000
Si      -3.32566866      -1.30221201       1.24438025       0.00000000
Si      -0.89199153       3.70830773       0.31373658       0.00000000
Si      -1.96939584      -1.58187696      -3.00042114       0.00000000
