10
Lattice="16.28999089631971 0.0 0.0 0.0 16.28999089631971 0.0 0.0 0.0 34.529650657227435" Properties=species:S:1:pos:R:3:initial_magmoms:R:1 pbc="T T T"
Si      -1.90288377      -0.81994086       1.26089375       0.00000000
Si      -0.74518605       0.09151722      -2.34946780       0.00000000
Si       0.75968415       1.90438245       1.37120224       0.00000000
Si       1.72950930      -1.84538333       0.26496588       0.00000000
Si       1.76518440       0.19958508      -2.62743165       0.00000000
Si      -0.56088099      -2.11748515       2.81667983       0.00000000
Si       2.19146648       0.61328592       2.80962887       0.00000000
Si       3.53804858      -0.78884814       1.41950579       0.00000000
Si      -2.23246305       2.14153227      -2.37747137       0.00000000
Si       0.66070611      -3.60203570       1.45221575       0.00000000
