10
Lattice="16.28999089631971 0.0 0.0 0.0 16.28999089631971 0.0 0.0 0.0 34.529650657227435" Properties=species:S:1:pos:R:3:initial_magmoms:R:1 pbc="T T T"
Si      -2.32811793      -0.29831700      -0.48724817       0.00000000
Si       1.59195654      -0.21642717      -1.82882944       0.00000000
Si      -0.52957161      -1.62072291       1.86739908       0.00000000
Si       0.71545680       2.09736275       1.25442838       0.00000000
Si       2.16155268      -2.48355534      -1.83884304       0.00000000
Si       3.32566866       1.30221201      -1.24438025       0.00000000
Si      -1.98847143      -0.11259471       3.26581618       0.00000000
Si      -1.03105926      -3.69140997       0.41787807       0.00000000
Si      -2.82442536       0.47804878      -2.63136803       0.00000000
Si      -2.83175586      -2.59527216      -0.63002836       0.00000000
