10
Lattice="16.28999089631971 0.0 0.0 0.0 16.28999089631971 0.0 0.0 0.0 34.529650657227435" Properties=species:S:1:pos:R:3:initial_magmoms:R:1 pbc="T T T"
Si      -1.36067112       1.35584928       1.36216095       0.00000000
Si       1.35583995      -1.36032903       1.36281701       0.00000000
Si       1.35944566       1.36391283      -1.37139764       0.00000000
Si      -1.38166893      -1.37088495      -1.36912558       0.00000000
Si      -0.10432116       2.59230915      -2.79724166       0.00000000
Si       2.71344389      -2.71435383       0.00649158       0.00000000
Si      -2.71495656      -2.71329498       0.00407450       0.00000000
Si       2.71210811       2.71637379       0.00376373       0.00000000
Si       2.71295519      -0.00016290       2.71983304       0.00000000
Si      -0.00164529       2.71472850       2.72000569       0.00000000
