10
Lattice="16.28999089631971 0.0 0.0 0.0 16.28999089631971 0.0 0.0 0.0 34.529650657227435" Properties=species:S:1:pos:R:3:initial_magmoms:R:1 pbc="T T T"
Si      -0.33604641       0.31563504      -2.22673835       0.00000000
Si      -1.91751219      -0.76336569       1.15911820       0.00000000
Si       0.78436350       1.95085782       1.20553299       0.00000000
Si       1.81268604      -1.72845045      -0.23026736       0.00000000
Si      -0.49298427      -2.01233628       2.63364906       0.00000000
Si       2.24813032       0.72246150       2.63137701       0.00000000
Si      -0.53313912       2.59362864      -2.57825039       0.00000000
Si       0.82412739      -3.41169615       1.19124461       0.00000000
Si       3.55126628      -0.72441630       1.20813307       0.00000000
Si      -3.30120108      -1.96638219      -0.54521248       0.00000000
