10
Lattice="16.28999089631971 0.0 0.0 0.0 16.28999089631971 0.0 0.0 0.0 34.529650657227435" Properties=species:S:1:pos:R:3:initial_magmoms:R:1 pbc="T T T"
Si      -1.35506736      -1.35348723      -1.39655250       0.00000000
Si       1.35967743       1.36396170      -1.39171835       0.00000000
Si       1.31484735      -1.44243063       1.45128203       0.00000000
Si      -1.43433450       1.33100703       1.47579809       0.00000000
Si       2.70878265      -2.69752626      -0.03104217       0.00000000
Si      -2.69964396      -2.70705591      -0.04343832       0.00000000
Si      -2.71008585       2.70923877      -0.02634614       0.00000000
Si       2.72315043       2.70933651      -0.00700952       0.00000000
Si      -2.71176372       0.00252495      -2.75667620       0.00000000
Si       0.00185706      -2.71122615      -2.75740132       0.00000000
