10
Lattice="16.28999089631971 0.0 0.0 0.0 16.28999089631971 0.0 0.0 0.0 34.529650657227435" Properties=species:S:1:pos:R:3:initial_magmoms:R:1 pbc="T T T"
Si      -0.91398303       0.92641230       2.00945414       0.00000000
Si       1.84495557      -1.22072373       0.92042288       0.00000000
Si       1.15789060       1.58306220      -1.39220176       0.00000000
Si      -1.59953139      -1.14013710      -1.42224258       0.00000000
Si       3.46124123       0.70494975       0.55116259       0.00000000
Si      -0.20559609      -2.39523273      -2.90456678       0.00000000
Si       2.48080314       2.89887066       0.11225596       0.00000000
Si       2.52883584       0.31620519      -2.89804067       0.00000000
Si      -2.00428902      -1.01913498       3.15131580       0.00000000
Si      -2.85068484      -2.71254564      -0.15956160       0.00000000
