10
Lattice="16.28999089631971 0.0 0.0 0.0 16.28999089631971 0.0 0.0 0.0 34.529650657227435" Properties=species:S:1:pos:R:3:initial_magmoms:R:1 pbc="T T T"
Si       1.53391594      -1.65451014       0.82719277       0.00000000
Si      -2.10504267       0.07503174       1.17124640       0.00000000
Si      -1.28060577      -0.63806301      -1.96024936       0.00000000
Si       1.03996567       1.92375126      -1.42825074       0.00000000
Si       1.36243274       1.68200766       2.79117134       0.00000000
Si      -2.37091176      -2.58361029      -0.81838771       0.00000000
Si      -2.41536717       1.42465824      -2.36037918       0.00000000
Si      -3.59166807       1.06070706      -0.41149008       0.00000000
Si       1.34266320      -3.48185718      -0.76144828       0.00000000
Si       0.94399819      -2.21765544       3.07548864       0.00000000
