10
Lattice="16.28999089631971 0.0 0.0 0.0 16.28999089631971 0.0 0.0 0.0 34.529650657227435" Properties=species:S:1:pos:R:3:initial_magmoms:R:1 pbc="T T T"
Si       0.18073755      -1.54062675      -1.73784376       0.00000000
Si       0.97233381      -0.81969651       1.99250008       0.00000000
Si       1.39540140       1.90309554      -0.20358693       0.00000000
Si      -2.05014537       1.17920052       0.38749196       0.00000000
Si      -0.17549217       0.95788458       2.98125717       0.00000000
Si       0.60194808       3.01202100       1.79616437       0.00000000
Si      -0.10290393      -0.29678751      -3.70572418       0.00000000
Si      -2.61847089       2.02300623      -1.74626900       0.00000000
Si       2.42471763      -2.32125984      -1.75158657       0.00000000
Si       0.88969464       3.22090767      -2.06300966       0.00000000
