10
Lattice="16.28999089631971 0.0 0.0 0.0 16.28999089631971 0.0 0.0 0.0 34.529650657227435" Properties=species:S:1:pos:R:3:initial_magmoms:R:1 pbc="T T T"
Si      -0.18073755       1.54062675       1.73784376       0.00000000
Si      -0.28364148       1.24383924      -1.96788042       0.00000000
Si       2.24398008      -0.78063309      -0.01374281       0.00000000
Si      -1.39566204      -1.93476330      -0.12921002       0.00000000
Si       1.75757697      -2.26383759      -1.87886293       0.00000000
Si      -0.59248359      -2.76602571      -2.17447144       0.00000000
Si      -2.56964976       1.95569595      -1.74557841       0.00000000
Si      -0.53823789      -3.59891223       1.29096077       0.00000000
Si       0.79159626       0.72093024       3.73034383       0.00000000
Si       1.21466385       3.44372229       1.53425683       0.00000000
