10
Lattice="16.28999089631971 0.0 0.0 0.0 16.28999089631971 0.0 0.0 0.0 34.529650657227435" Properties=species:S:1:pos:R:3:initial_magmoms:R:1 pbc="T T T"
Si      -1.14782598       1.77758109       0.98875710       0.00000000
Si      -0.97233381       0.81969651      -1.99250008       0.00000000
Si       2.36934792       0.42301872       0.13818774       0.00000000
Si      -0.39698730      -2.21791608       0.91821298       0.00000000
Si       2.89963629      -1.83073536       0.12413416       0.00000000
Si       0.42306759       2.72279205      -2.19608701       0.00000000
Si       0.64583334       2.70479160       2.19304840       0.00000000
Si       1.68278958      -2.28639924       2.18113566       0.00000000
Si       2.49261435       1.30416111       2.32743787       0.00000000
Si       0.20746944      -3.75279246      -0.80222782       0.00000000
