10
Lattice="16.28999089631971 0.0 0.0 0.0 16.28999089631971 0.0 0.0 0.0 34.529650657227435" Properties=species:S:1:pos:R:3:initial_magmoms:R:1 pbc="T T T"
Si      -1.84678101       1.40063049      -0.13438948       0.00000000
Si      -0.73438578      -1.72084302       1.40767106       0.00000000
Si      -0.12326643      -0.88114239      -2.18925013       0.00000000
Si       1.30583965       1.71455508       1.03609728       0.00000000
Si       2.37779333       1.55916477      -1.15857402       0.00000000
Si       1.42336223       0.61773309      -3.15563201       0.00000000
Si      -2.49261435      -1.30416111      -2.32743787       0.00000000
Si      -0.80982477      -3.59056035      -0.14630221       0.00000000
Si      -2.73308733      -0.80500293       2.43351302       0.00000000
Si       0.40702194      -3.13489647      -2.20330371       0.00000000
