10
Lattice="16.28999089631971 0.0 0.0 0.0 16.28999089631971 0.0 0.0 0.0 34.529650657227435" Properties=species:S:1:pos:R:3:initial_magmoms:R:1 pbc="T T T"
Si      -0.50570676       1.31781213      -1.85942273       0.00000000
Si      -1.39540140      -1.90309554       0.20358693       0.00000000
Si       2.32389882      -0.27165204      -0.58475996       0.00000000
Si      -0.79345332       1.10892546       1.99975131       0.00000000
Si      -0.42306759      -2.72279205       2.19608701       0.00000000
Si      -3.44554677      -0.72389502       0.59107889       0.00000000
Si       1.24380666       2.87507097      -1.82316657       0.00000000
Si      -1.57089357      -0.94521096       3.18484411       0.00000000
Si      -0.35795646      -0.13652649      -3.67540713       0.00000000
Si       1.94628033      -2.29977333       2.33427475       0.00000000
