10
Lattice="16.28999089631971 0.0 0.0 0.0 16.28999089631971 0.0 0.0 0.0 34.529650657227435" Properties=species:S:1:pos:R:3:initial_magmoms:R:1 pbc="T T T"
Si      -0.02943603       1.03977441      -2.12799450       0.00000000
Si      -1.20998862       1.42496775       1.47973448       0.00000000
Si       2.20357178       0.29436030       0.91583044       0.00000000
Si      -1.45805274      -1.94279427      -0.22989854       0.00000000
Si      -2.01837987       3.06857988      -0.04513028       0.00000000
Si       1.93617957      -0.43914582       3.15031444       0.00000000
Si      -0.24265584      -1.20080106       3.52237163       0.00000000
Si       2.34082154       2.58212790       1.44630976       0.00000000
Si      -0.44183367      -3.06972018       2.15948556       0.00000000
Si      -2.16212283       0.04469976       3.15041803       0.00000000
