10
Lattice="16.28999089631971 0.0 0.0 0.0 16.28999089631971 0.0 0.0 0.0 34.529650657227435" Properties=species:S:1:pos:R:3:initial_magmoms:R:1 pbc="T T T"
Si      -1.22158710       1.48455055       1.36446408       0.00000000
Si       1.06880319       1.75665237      -1.18724987       0.00000000
Si       1.52011764      -1.22352561       1.36902200       0.00000000
Si      -1.23075837      -1.27444815      -1.67517383       0.00000000
Si      -2.58514155      -2.55533085      -0.07699426       0.00000000
Si      -2.55511908       0.13406670       2.73980500       0.00000000
Si       0.16584849      -2.58618411       2.73300266       0.00000000
Si      -2.56358988       2.78209484      -0.19132200       0.00000000
Si       2.91854313      -2.49351030      -0.04616272       0.00000000
Si       2.75940287       0.50784075      -2.76227143       0.00000000
