10
Lattice="16.28999089631971 0.0 0.0 0.0 16.28999089631971 0.0 0.0 0.0 34.529650657227435" Properties=species:S:1:pos:R:3:initial_magmoms:R:1 pbc="T T T"
Si       1.35485137       1.35829278       1.36639774       0.00000000
Si      -1.35426915      -1.36265850       1.36398066       0.00000000
Si       1.39842549      -1.26998469      -1.41518471       0.00000000
Si      -1.52011764       1.22352561      -1.36902200       0.00000000
Si      -0.14538825      -2.61236214      -2.63250854       0.00000000
Si       2.71558277       2.69930863      -0.00978916       0.00000000
Si       2.71177091      -0.00399105       2.72417342       0.00000000
Si      -0.00009222       2.71151353       2.72462231       0.00000000
Si      -2.71746522      -0.00140094       2.72431154       0.00000000
Si      -0.00139942      -2.71925712       2.72541649       0.00000000
