10
Lattice="16.28999089631971 0.0 0.0 0.0 16.28999089631971 0.0 0.0 0.0 34.529650657227435" Properties=species:S:1:pos:R:3:initial_magmoms:R:1 pbc="T T T"
Si       1.35738449      -1.35741312       1.35725774       0.00000000
Si       1.35821685       1.35700003      -1.35705056       0.00000000
Si      -1.35773892       1.35751221       1.35715415       0.00000000
Si      -1.35915615      -1.35591444      -1.35736133       0.00000000
Si       2.71271573      -0.00027693       2.71382488       0.00000000
Si      -2.71692765       0.00307881      -2.71088986       0.00000000
Si       2.71316044       0.00377928      -2.71527513       0.00000000
Si       2.71465749      -2.71463076      -0.00010359       0.00000000
Si      -0.00055386       2.71403359       2.71548230       0.00000000
Si      -2.71502172      -2.71456560      -0.00017265       0.00000000
