10
Lattice="16.28999089631971 0.0 0.0 0.0 16.28999089631971 0.0 0.0 0.0 34.529650657227435" Properties=species:S:1:pos:R:3:initial_magmoms:R:1 pbc="T T T"
Si      -0.13566964      -0.69665814       2.28783234       0.00000000
Si      -1.84495557       1.22072373      -0.92042288       0.00000000
Si       0.19882108      -2.44538964      -0.44008064       0.00000000
Si       1.61628565       1.92567348      -0.36926029       0.00000000
Si       1.67716139      -2.28837033       1.63777678       0.00000000
Si       3.26976953      -0.75577455       0.84242036       0.00000000
Si       2.52420880       0.84014046      -2.45927215       0.00000000
Si      -2.75893860       2.14713603       1.08903126       0.00000000
Si      -0.68706498       2.80378593      -2.31262465       0.00000000
Si      -2.28959112      -1.68239862       2.40820277       0.00000000
