10
Lattice="16.28999089631971 0.0 0.0 0.0 16.28999089631971 0.0 0.0 0.0 34.529650657227435" Properties=species:S:1:pos:R:3:initial_magmoms:R:1 pbc="T T T"
Si       1.67656680       0.38428110       1.57075469       0.00000000
Si      -1.77847704      -1.47328389       0.48790424       0.00000000
Si      -0.48485556       2.28162627      -0.52322809       0.00000000
Si       1.16667351      -1.28203929      -1.89895920       0.00000000
Si       3.64514392       0.73932165       0.32299053       0.00000000
Si       1.71712890      -1.52125794       2.95960707       0.00000000
Si      -1.37125962      -3.54718008      -0.47536997       0.00000000
Si      -1.61344305       3.31115427       1.26333703       0.00000000
Si       1.77670143       3.43306863      -0.99694063       0.00000000
Si      -0.19495872      -3.18322890      -2.42425907       0.00000000
