10
Lattice="16.28999089631971 0.0 0.0 0.0 16.28999089631971 0.0 0.0 0.0 34.529650657227435" Properties=species:S:1:pos:R:3:initial_magmoms:R:1 pbc="T T T"
Si       2.19139596      -0.44799129      -0.59584398       0.00000000
Si      -0.63285021       1.95725557       1.15487934       0.00000000
Si      -0.28512387      -1.96359660       1.28712798       0.00000000
Si      -0.96671376       0.41738238      -2.12126121       0.00000000
Si      -2.65419486       1.14403271       1.90973246       0.00000000
Si      -0.68709591       2.79014210      -2.31055286       0.00000000
Si       2.82835125       1.25329626      -2.13859511       0.00000000
Si      -0.23372892      -1.16980119       3.58269497       0.00000000
Si       3.26920752      -1.39502673       1.31323241       0.00000000
Si      -3.19445271      -0.31822515      -2.02478532       0.00000000
