10
Lattice="16.28999089631971 0.0 0.0 0.0 16.28999089631971 0.0 0.0 0.0 34.529650657227435" Properties=species:S:1:pos:R:3:initial_magmoms:R:1 pbc="T T T"
Si      -1.04884794       1.93228722       0.80854675       0.00000000
Si       2.22610995      -0.16459416       0.73527479       0.00000000
Si       0.00851967       0.80280378      -2.23413871       0.00000000
Si      -1.31310432      -1.83319515       0.75792626       0.00000000
Si       2.46889611       1.47957183       2.46852611       0.00000000
Si      -2.92841095       2.36762118      -0.54871099       0.00000000
Si      -0.17554104      -0.92843226      -3.73269185       0.00000000
Si       3.70108800      -0.16366563      -1.10930018       0.00000000
Si      -1.85645727       2.21223087      -2.74338228       0.00000000
Si      -2.00054232       1.88618652       2.90132099       0.00000000
