10
Lattice="16.28999089631971 0.0 0.0 0.0 16.28999089631971 0.0 0.0 0.0 34.529650657227435" Properties=species:S:1:pos:R:3:initial_magmoms:R:1 pbc="T T T"
Si       1.32981318       1.34675946       1.36644263       0.00000000
Si      -1.35954920       1.35351981      -1.35660167       0.00000000
Si       1.35536730      -1.36058967      -1.35888063       0.00000000
Si      -1.35407576      -1.36888128       1.39261612       0.00000000
Si       2.56998066      -0.09558972       2.74697336       0.00000000
Si      -0.16459625       2.57277744       2.80508680       0.00000000
Si       2.70416139      -2.71124244      -0.00179554       0.00000000
Si      -0.00128505       2.71290402      -2.71423924       0.00000000
Si       2.71271364      -0.00245979      -2.71482624       0.00000000
Si       2.71642776       2.71391400       0.00583551       0.00000000
