10
Lattice="16.28999089631971 0.0 0.0 0.0 16.28999089631971 0.0 0.0 0.0 34.529650657227435" Properties=species:S:1:pos:R:3:initial_magmoms:R:1 pbc="T T T"
Si      -1.00775967       2.09326500       0.26877895       0.00000000
Si       1.77515388      -0.24777090       1.62002853       0.00000000
Si      -1.39252947      -1.33019253      -1.54634221       0.00000000
Si       1.71261657       0.85380777      -1.94243205       0.00000000
Si      -1.07006241      -1.57193613       2.67307987       0.00000000
Si       0.57886515      -0.13170465       3.64080840       0.00000000
Si      -2.97633680       1.73822445       1.51654310       0.00000000
Si       0.26946918       3.33192402       1.82437511       0.00000000
Si       2.63495637      -2.43149427       1.29993848       0.00000000
Si      -1.10062733       3.25829322      -1.74986008       0.00000000
