10
Lattice="16.28999089631971 0.0 0.0 0.0 16.28999089631971 0.0 0.0 0.0 34.529650657227435" Properties=species:S:1:pos:R:3:initial_magmoms:R:1 pbc="T T T"
Si      -1.86571229       1.40462154       0.23231562       0.00000000
Si       1.64892756       1.44023148       0.96772853       0.00000000
Si      -0.78562013      -1.74210147       1.47072223       0.00000000
Si       1.07006241       1.57193613      -2.67307987       0.00000000
Si       2.84521629       1.32416523      -1.05305134       0.00000000
Si      -1.36243274      -1.68200766      -2.79117134       0.00000000
Si      -3.61522571      -0.15263730       0.19605947       0.00000000
Si       0.17148320      -3.33651780      -1.96397857       0.00000000
Si      -0.41843455      -3.89966310       0.28431730       0.00000000
Si      -1.90627439       3.31016058      -1.15653677       0.00000000
