10
Lattice="16.28999089631971 0.0 0.0 0.0 16.28999089631971 0.0 0.0 0.0 34.529650657227435" Properties=species:S:1:pos:R:3:initial_magmoms:R:1 pbc="T T T"
Si      -0.99577512      -2.19931290       0.15669564       0.00000000
Si       0.16285113       1.03904136      -2.19159815       0.00000000
Si       2.05760619      -0.35196174       1.35124957       0.00000000
Si      -0.78903873       1.75363479       1.67976485       0.00000000
Si      -2.30360800       0.03300354       2.32529703       0.00000000
Si      -2.87533813      -1.76397894      -1.20056209       0.00000000
Si      -1.94746950      -2.24541360       2.24946988       0.00000000
Si       2.03128155       0.15695415      -3.30017321       0.00000000
Si       1.47795912       0.53568036       3.56363459       0.00000000
Si      -3.64994555       0.55267083      -1.38021997       0.00000000
