10
Lattice="16.28999089631971 0.0 0.0 0.0 16.28999089631971 0.0 0.0 0.0 34.529650657227435" Properties=species:S:1:pos:R:3:initial_magmoms:R:1 pbc="T T T"
Si       0.95734701       1.77824898      -1.37642170       0.00000000
Si      -1.85561738      -1.04485689      -1.39182194       0.00000000
Si       1.71413154      -1.88643087      -0.20358693       0.00000000
Si       1.26490221       0.08180838       2.28734893       0.00000000
Si      -1.15537802       0.07856667       2.41417640       0.00000000
Si       1.65786588      -2.32591878       2.22160444       0.00000000
Si      -0.36120794      -2.27087487      -2.83046611       0.00000000
Si       2.38640355       0.45506115      -2.80740029       0.00000000
Si       2.31881634       3.14329464       0.02047609       0.00000000
Si       3.72348675      -0.96327657      -1.30611930       0.00000000
