10
Lattice="16.28999089631971 0.0 0.0 0.0 16.28999089631971 0.0 0.0 0.0 34.3005442915855" Properties=species:S:1:pos:R:3:initial_magmoms:R:1 pbc="T T T"
Si       1.23948981      -1.41066445       1.40889564       0.00000000
Si      -1.24002738      -1.52744718      -1.39367104       0.00000000
Si      -1.49209884       1.31024542       1.39518914       0.00000000
Si       1.78452063       0.94831420      -1.43733565       0.00000000
Si      -0.93608856       0.68022967      -3.04009808       0.00000000
Si       2.63876823       2.65469170       0.01465663       0.00000000
Si       2.58090615      -0.05242774       2.78116858       0.00000000
Si      -0.13613553       2.67109573       2.78116858       0.00000000
Si       2.84701959      -2.62785297      -0.05927137       0.00000000
Si      -3.00045510       2.48372815      -0.11785331       0.00000000
