10
Lattice="16.28999089631971 0.0 0.0 0.0 16.28999089631971 0.0 0.0 0.0 34.3005442915855" Properties=species:S:1:pos:R:3:initial_magmoms:R:1 pbc="T T T"
Si       1.33172379      -1.42592953       1.32592258       0.00000000
Si       1.36910934       1.34380120      -1.37823094       0.00000000
Si      -1.34995230      -1.36896340      -1.37956866       0.00000000
Si      -1.31984838       1.38486829       1.52894762       0.00000000
Si      -2.70045846       2.70676921       0.00682581       0.00000000
Si       2.74400163       2.68821490       0.00919255       0.00000000
Si      -2.70462870      -2.73246898      -0.01862521       0.00000000
Si       0.00907353       2.70105142      -2.73865989       0.00000000
Si      -2.70467757      -0.01494770      -2.73917440       0.00000000
Si       2.71736748      -2.74333441      -0.02949848       0.00000000
