10
Lattice="16.28999089631971 0.0 0.0 0.0 16.28999089631971 0.0 0.0 0.0 34.3005442915855" Properties=species:S:1:pos:R:3:initial_magmoms:R:1 pbc="T T T"
Si      -1.31147532      -1.36856592      -1.41359482       0.00000000
Si      -1.78882119       0.95887501       1.24723709       0.00000000
Si       1.56871071       1.51066618      -1.17705814       0.00000000
Si       0.76359375      -1.76078025       1.60032709       0.00000000
Si      -0.24340518       0.85408144       3.01423062       0.00000000
Si      -2.52585410      -2.48403996       0.28908515       0.00000000
Si       2.97518931      -2.10111093       0.77454102       0.00000000
Si      -2.53988141       0.11122160      -2.73217708       0.00000000
Si       0.18393039      -2.60667108      -2.72463096       0.00000000
Si       0.18810063       2.83256710      -2.69917994       0.00000000
