10
Lattice="16.28999089631971 0.0 0.0 0.0 16.28999089631971 0.0 0.0 0.0 34.3005442915855" Properties=species:S:1:pos:R:3:initial_magmoms:R:1 pbc="T T T"
Si       0.93476907      -1.24682031       1.82430977       0.00000000
Si      -0.64355274       1.53795519       1.78266888       0.00000000
Si       1.24688547       1.39738878      -1.56719274       0.00000000
Si      -1.56649527      -1.33571484      -1.49804281       0.00000000
Si       2.12433003       3.18076911      -0.10883569       0.00000000
Si       2.49735474      -0.03236823      -3.01779787       0.00000000
Si      -0.31483683      -1.21386564       3.84910633       0.00000000
Si      -0.24159699       2.67703344      -3.03079779       0.00000000
Si      -0.24664689      -2.72058313      -3.02699042       0.00000000
Si       1.50283395      -3.51275442       1.50726966       0.00000000
