10
Lattice="16.28999089631971 0.0 0.0 0.0 16.28999089631971 0.0 0.0 0.0 34.3005442915855" Properties=species:S:1:pos:R:3:initial_magmoms:R:1 pbc="T T T"
Si       0.63566838       1.18488573      -1.84801146       0.00000000
Si      -0.35031645       1.36620972       1.85497447       0.00000000
Si       1.95739011      -1.18646586       0.58163465       0.00000000
Si      -1.86642675      -1.29808494      -0.68734899       0.00000000
Si       0.61496379      -0.09602955       3.46600334       0.00000000
Si       1.09755504      -2.26839879       2.47235031       0.00000000
Si       2.40914439      -2.63531475      -1.17822435       0.00000000
Si      -1.38170151      -3.52411670      -0.30249667       0.00000000
Si       0.69512688       3.43733661       1.55710838       0.00000000
Si       2.76097581       2.13068313      -1.62094173       0.00000000
