10
Lattice="16.28999089631971 0.0 0.0 0.0 16.28999089631971 0.0 0.0 0.0 34.3005442915855" Properties=species:S:1:pos:R:3:initial_magmoms:R:1 pbc="T T T"
Si       1.25822331       1.93243383       0.24929650       0.00000000
Si       1.00698264      -2.12221233       0.27001404       0.00000000
Si      -0.53230833      -0.12657330      -2.31744897       0.00000000
Si      -1.81726353       0.08770536       1.58660686       0.00000000
Si      -0.71066754       3.29478282       0.11322616       0.00000000
Si      -1.77650595      -2.08391454      -2.19009098       0.00000000
Si       1.58110740      -0.90194472      -3.10128545       0.00000000
Si      -0.80374860      -3.49242939      -0.42220564       0.00000000
Si       1.71274689      -2.02733937       2.57038132       0.00000000
Si      -3.68300610       0.38639880       0.17983785       0.00000000
