10
Lattice="16.28999089631971 0.0 0.0 0.0 16.28999089631971 0.0 0.0 0.0 34.3005442915855" Properties=species:S:1:pos:R:3:initial_magmoms:R:1 pbc="T T T"
Si      -1.46460132      -1.94017158      -0.35312430       0.00000000
Si      -1.34283357       1.78984746       1.15040660       0.00000000
Si       1.27031049      -0.06620256      -2.17280349       0.00000000
Si       1.41683904      -1.92513591       1.61730587       0.00000000
Si       0.54452583      -3.19453416      -0.22192465       0.00000000
Si       3.22908525       1.18772019       0.43959602       0.00000000
Si      -2.42864352      -1.43612640      -2.40549852       0.00000000
Si      -0.50007042      -0.73480932      -3.65887540       0.00000000
Si       0.26513604       3.54546963       1.33761907       0.00000000
Si       3.55397301      -1.13738409       0.81004211       0.00000000
