10
Lattice="16.28999089631971 0.0 0.0 0.0 16.28999089631971 0.0 0.0 0.0 34.3005442915855" Properties=species:S:1:pos:R:3:initial_magmoms:R:1 pbc="T T T"
Si       0.03316644      -2.27770038       0.48120260       0.00000000
Si      -2.21159556       0.34033068       0.82578607       0.00000000
Si       1.66285062       1.43473753       1.05371331       0.00000000
Si       1.24509357       0.80097930      -2.15462419       0.00000000
Si      -1.26460899      -1.72142946      -2.12989349       0.00000000
Si       3.10609575       1.61299086      -0.83665934       0.00000000
Si      -2.97518931       2.10111093      -0.77454102       0.00000000
Si       2.29438134      -2.87318133      -0.62516207       0.00000000
Si       2.25264636       0.53810757       3.13712953       0.00000000
Si      -3.71421774      -1.61095068       0.56520468       0.00000000
