10
Lattice="16.28999089631971 0.0 0.0 0.0 16.28999089631971 0.0 0.0 0.0 34.3005442915855" Properties=species:S:1:pos:R:3:initial_magmoms:R:1 pbc="T T T"
Si       0.22141368      -2.27804247       0.27509052       0.00000000
Si      -1.59707160       0.36769788      -1.62989417       0.00000000
Si      -0.88094691       0.48563748       2.14879310       0.00000000
Si       2.02644342       1.19222179      -0.34616129       0.00000000
Si       2.85588135       1.20499478       1.82197733       0.00000000
Si       0.92510910       1.71538980       3.04664465       0.00000000
Si       1.93759776      -2.51462214       1.86794008       0.00000000
Si      -3.67227262      -0.47584719      -0.82304202       0.00000000
Si      -0.60478254      -0.01980864      -3.76606467       0.00000000
Si      -1.61178147       2.59505306      -2.35216114       0.00000000
