10
Lattice="16.28999089631971 0.0 0.0 0.0 16.28999089631971 0.0 0.0 0.0 34.3005442915855" Properties=species:S:1:pos:R:3:initial_magmoms:R:1 pbc="T T T"
Si       1.24002738       1.52744718       1.39367104       0.00000000
Si      -1.69758090      -1.23885450       1.18359380       0.00000000
Si       1.10842047      -1.48284612      -1.67122635       0.00000000
Si       0.30393882       2.20767686      -1.64642705       0.00000000
Si      -1.76669937      -0.59478048      -2.70000315       0.00000000
Si       0.34598331       0.09923868      -3.28873802       0.00000000
Si       2.47951719       0.11678274       2.80256668       0.00000000
Si      -0.25713765      -2.57875587       2.78096075       0.00000000
Si       3.02454801       2.47576139      -0.04366462       0.00000000
Si      -0.25207146       2.83769261       2.78886017       0.00000000
