10
Lattice="16.28999089631971 0.0 0.0 0.0 16.28999089631971 0.0 0.0 0.0 34.3005442915855" Properties=species:S:1:pos:R:3:initial_magmoms:R:1 pbc="T T T"
Si       1.35449721      -1.35684774      -1.35607278       0.00000000
Si       1.35622395       1.35725101       1.35638148       0.00000000
Si      -1.35736425       1.35253017      -1.36056615       0.00000000
Si      -1.35891180      -1.35735273       1.35648438       0.00000000
Si       2.70394452       0.01600710      -2.70808780       0.00000000
Si       2.71349046      -2.71299024      -0.00027440       0.00000000
Si       2.71353933       0.00056672       2.71348327       0.00000000
Si      -0.00133578      -2.71502649       2.71344897       0.00000000
Si       2.71379997       2.71487753       0.00058311       0.00000000
Si      -0.00107514       2.71530107       2.71396348       0.00000000
