10
Lattice="16.28999089631971 0.0 0.0 0.0 16.28999089631971 0.0 0.0 0.0 34.3005442915855" Properties=species:S:1:pos:R:3:initial_magmoms:R:1 pbc="T T T"
Si       1.35641943       1.35673057      -1.35713609       0.00000000
Si       1.35247725      -1.35793521       1.36252128       0.00000000
Si      -1.35840681      -1.35884283      -1.35696459       0.00000000
Si      -1.35783666       1.35690976       1.36001734       0.00000000
Si       2.71371852      -0.00131949      -2.71471810       0.00000000
Si      -0.00136836       2.71425772      -2.71447799       0.00000000
Si       2.71451673       2.71463239       0.00000000       0.00000000
Si       2.71511946      -2.71540195      -0.00003430       0.00000000
Si      -0.00141723      -2.71592323      -2.71461519       0.00000000
Si      -2.71660185      -0.00094971      -2.71430649       0.00000000
