10
Lattice="16.28999089631971 0.0 0.0 0.0 16.28999089631971 0.0 0.0 0.0 34.3005442915855" Properties=species:S:1:pos:R:3:initial_magmoms:R:1 pbc="T T T"
Si      -1.35247725       1.35793521      -1.36252128       0.00000000
Si      -1.36205577      -1.37229064       1.34622851       0.00000000
Si       1.36264221      -1.35746674      -1.36255558       0.00000000
Si       1.36454814       1.38090248       1.35336303       0.00000000
Si      -2.71031391       2.71484497      -0.00250394       0.00000000
Si      -2.70632286      -2.71929445      -0.00740892       0.00000000
Si       2.71534752      -2.71403278      -0.00137202       0.00000000
Si      -2.71088406      -0.00090763      -2.71948587       0.00000000
Si       2.71544526       2.71759798      -0.00569389       0.00000000
Si       0.00394218       2.71466578      -2.71965738       0.00000000
