10
Lattice="16.28999089631971 0.0 0.0 0.0 16.28999089631971 0.0 0.0 0.0 34.3005442915855" Properties=species:S:1:pos:R:3:initial_magmoms:R:1 pbc="T T T"
Si       0.58979574      -0.89662996       2.08341622       0.00000000
Si      -0.56806488       2.26593411       0.31704011       0.00000000
Si       1.44324513       0.17825333      -1.89037265       0.00000000
Si      -1.66285062      -1.43473753      -1.05371331       0.00000000
Si      -0.41775705      -0.63375823      -3.20833750       0.00000000
Si      -1.24322022       0.11762357       3.19197614       0.00000000
Si      -1.81767078       2.29888878       2.34183667       0.00000000
Si       2.61749349      -0.09027266       2.97567678       0.00000000
Si      -3.87444618      -1.09440685      -0.22792724       0.00000000
Si       1.08066231      -3.24742357       2.15513870       0.00000000
