10
Lattice="16.28999089631971 0.0 0.0 0.0 16.28999089631971 0.0 0.0 0.0 34.3005442915855" Properties=species:S:1:pos:R:3:initial_magmoms:R:1 pbc="T T T"
Si       1.23724179      -1.26469370      -1.57683120       0.00000000
Si      -1.01400363      -1.88847038       1.08942020       0.00000000
Si       1.15113285       1.51536096       1.48888456       0.00000000
Si      -1.46272797       1.41366249      -1.54527468       0.00000000
Si       2.62070262      -2.48975839      -0.17174292       0.00000000
Si       0.80640387      -3.50686952       0.89538191       0.00000000
Si       2.48906313       2.80010439      -0.05841386       0.00000000
Si       2.58813891       0.07200180      -2.93588813       0.00000000
Si      -2.71319724       2.84341950      -0.09466956       0.00000000
Si      -0.12730635      -2.64559618      -2.93019423       0.00000000
