10
Lattice="16.28999089631971 0.0 0.0 0.0 16.28999089631971 0.0 0.0 0.0 34.3005442915855" Properties=species:S:1:pos:R:3:initial_magmoms:R:1 pbc="T T T"
Si      -0.49337523       0.60747039      -2.21701692       0.00000000
Si       0.85424760       1.70637750       1.45199228       0.00000000
Si      -1.78452063      -0.94831420       1.43733565       0.00000000
Si       2.26255068      -0.54475389      -1.79741813       0.00000000
Si      -2.72060919      -0.26808453      -1.60276243       0.00000000
Si       2.16362151       0.35477991       2.85284788       0.00000000
Si      -0.54503082      -2.35897865       2.84623130       0.00000000
Si       2.34572742       2.97711153       0.06829242       0.00000000
Si      -3.02454801      -2.47576139       0.04366462       0.00000000
Si       1.06249896      -3.57616718       1.37806428       0.00000000
