10
Lattice="16.28999089631971 0.0 0.0 0.0 16.28999089631971 0.0 0.0 0.0 34.3005442915855" Properties=species:S:1:pos:R:3:initial_magmoms:R:1 pbc="T T T"
Si      -0.01562211       1.97539056       1.26593090       0.00000000
Si      -2.08044640      -0.07951149      -1.13329062       0.00000000
Si       1.31036760       0.46926603      -1.94014277       0.00000000
Si      -1.00304046      -1.88159437       1.56849617       0.00000000
Si      -2.03501848       1.33511211       2.42415802       0.00000000
Si       1.98285138       1.52686170       2.44024499       0.00000000
Si       2.46899385      -0.96568749       2.41362775       0.00000000
Si      -3.41810643       1.16957313       0.37929563       0.00000000
Si       1.67917320      -1.67692844      -2.90385140       0.00000000
Si       3.12109884       1.83948309      -1.24792310       0.00000000
