10
Lattice="16.28999089631971 0.0 0.0 0.0 16.28999089631971 0.0 0.0 0.0 34.3005442915855" Properties=species:S:1:pos:R:3:initial_magmoms:R:1 pbc="T T T"
Si      -1.35382932      -1.34770428       1.37208085       0.00000000
Si       1.36117611       1.36296801       1.37002282       0.00000000
Si      -1.34048781       1.41626889      -1.33829136       0.00000000
Si       1.42107444      -1.36410831      -1.39443110       0.00000000
Si       0.25352127       2.61001638      -2.76684607       0.00000000
Si      -2.70979263      -2.70855459      -0.01389859       0.00000000
Si       0.00488700      -2.70870120       2.73017736       0.00000000
Si      -2.70845685       0.00775404       2.73220109       0.00000000
Si       2.73044835      -2.71570590       0.00642450       0.00000000
Si      -2.70335808       2.74789494       0.02237769       0.00000000
