10
Lattice="16.28999089631971 0.0 0.0 0.0 16.28999089631971 0.0 0.0 0.0 34.3005442915855" Properties=species:S:1:pos:R:3:initial_magmoms:R:1 pbc="T T T"
Si       1.33983621       1.37016819      -1.39047624       0.00000000
Si      -1.37489229      -1.34441370      -1.38742349       0.00000000
Si      -1.25046927       1.42975701       1.45060513       0.00000000
Si       1.46272797      -1.41366249       1.54527468       0.00000000
Si       2.69996976      -2.67835619      -0.03155652       0.00000000
Si       2.68607439       2.71849149      -0.01646427       0.00000000
Si      -2.74400163      -2.68821490      -0.00919255       0.00000000
Si       2.69746110       0.01330893      -2.74744083       0.00000000
Si      -2.73895173       2.70940167      -0.01299991       0.00000000
Si      -0.01705563      -2.70132346      -2.74744083       0.00000000
