10
Lattice="16.28999089631971 0.0 0.0 0.0 16.28999089631971 0.0 0.0 0.0 34.3005442915855" Properties=species:S:1:pos:R:3:initial_magmoms:R:1 pbc="T T T"
Si       1.59729966       1.67541021       0.44151685       0.00000000
Si      -0.72549144      -0.80426988       2.10914165       0.00000000
Si       1.61824860      -1.22178258      -1.27368282       0.00000000
Si      -1.66055373       0.00799839      -1.84982939       0.00000000
Si       1.18747584      -2.03344812       2.71571281       0.00000000
Si       0.11218923      -2.36178936      -2.73728787       0.00000000
Si       2.18531979       2.35651140      -1.75269019       0.00000000
Si      -1.98544149       2.33310267      -2.22027547       0.00000000
Si      -2.85079887      -1.75006728       1.88207192       0.00000000
Si       3.53683593       0.58329603       1.48758114       0.00000000
