10
Lattice="16.28999089631971 0.0 0.0 0.0 16.28999089631971 0.0 0.0 0.0 34.3005442915855" Properties=species:S:1:pos:R:3:initial_magmoms:R:1 pbc="T T T"
Si      -0.06801075       1.93621311       1.26894935       0.00000000
Si      -2.09282517      -0.78418431      -0.66481352       0.00000000
Si       1.51780446       0.85428018      -1.59164905       0.00000000
Si       0.83049678      -1.85029965       1.25931089       0.00000000
Si       2.20504698       1.60412517       2.24329115       0.00000000
Si       1.38601836      -0.86916924      -3.15458852       0.00000000
Si       2.26628109      -0.81081846       2.80969636       0.00000000
Si      -1.61023392      -2.95655355      -1.65846654       0.00000000
Si      -1.38580659       1.39243662       3.25971975       0.00000000
Si      -1.46838060       3.51732051      -0.36386038       0.00000000
