10
Lattice="16.28999089631971 0.0 0.0 0.0 16.28999089631971 0.0 0.0 0.0 34.3005442915855" Properties=species:S:1:pos:R:3:initial_magmoms:R:1 pbc="T T T"
Si       1.35889551      -1.35490446      -1.36142366       0.00000000
Si      -1.35959598      -1.34462547       1.37435498       0.00000000
Si      -1.35508365       1.36260963      -1.36272709       0.00000000
Si       1.36357074       1.36272366       1.37198824       0.00000000
Si      -2.70829395       2.71368594      -0.00662001       0.00000000
Si      -2.71458189      -2.71078632      -0.00054881       0.00000000
Si       2.71567332      -2.71225242       0.00181793       0.00000000
Si       0.00138465      -2.71283886      -2.71879986       0.00000000
Si      -2.71296918       0.00231318      -2.71890276       0.00000000
Si       2.71337643       2.71894761      -0.00058311       0.00000000
