10
Lattice="16.28999089631971 0.0 0.0 0.0 16.28999089631971 0.0 0.0 0.0 34.3005442915855" Properties=species:S:1:pos:R:3:initial_magmoms:R:1 pbc="T T T"
Si       1.83014892       1.34825814      -0.12313902       0.00000000
Si      -1.72423134       0.54235926      -1.52359673       0.00000000
Si       0.47377836      -1.97348463       1.28170915       0.00000000
Si      -0.06377535       2.24210673       1.17510300       0.00000000
Si      -2.33512263       1.73646513       1.87764714       0.00000000
Si       3.26603097       0.26950176       1.30067737       0.00000000
Si      -0.65990790      -0.05102028      -3.51103998       0.00000000
Si      -3.07330398      -1.37966526      -1.20967797       0.00000000
Si      -1.49936418      -2.40114600       2.48984360       0.00000000
Si      -0.18740016       3.69951017      -0.70305865       0.00000000
