10
Lattice="16.28999089631971 0.0 0.0 0.0 16.28999089631971 0.0 0.0 0.0 34.3005442915855" Properties=species:S:1:pos:R:3:initial_magmoms:R:1 pbc="T T T"
Si      -0.58979574       0.89662996      -2.08341622       0.00000000
Si       2.02769775       0.80635730       0.89226056       0.00000000
Si      -1.83301596       1.01425354       1.10855991       0.00000000
Si       0.49086657      -2.35079361       0.07172248       0.00000000
Si       2.15132256      -0.65104614       2.77042221       0.00000000
Si      -1.00357803       1.02702653       3.27669853       0.00000000
Si      -0.12002472      -1.15668774       3.47296635       0.00000000
Si      -1.15786062       3.16256408      -1.76637612       0.00000000
Si       1.55519001      -2.94417315      -1.91572077       0.00000000
Si      -2.25264636      -0.53810757      -3.13712953       0.00000000
