10
Lattice="16.28999089631971 0.0 0.0 0.0 16.28999089631971 0.0 0.0 0.0 34.3005442915855" Properties=species:S:1:pos:R:3:initial_magmoms:R:1 pbc="T T T"
Si      -1.35692442      -1.35648718      -1.35703319       0.00000000
Si       1.35754344      -1.35478896       1.35854242       0.00000000
Si       1.35816576       1.35767702      -1.35696459       0.00000000
Si      -1.36003581       1.36117937       1.35741050       0.00000000
Si       2.70664607       0.00004887       2.71266006       0.00000000
Si      -2.71283886      -2.71388535       0.00054881       0.00000000
Si      -2.71093293       0.02448387       2.71646742       0.00000000
Si       0.00076563      -2.71426002      -2.71389488       0.00000000
Si      -2.71423980       0.00019711      -2.71413499       0.00000000
Si       2.71407431       2.71478063       0.00168073       0.00000000
