10
Lattice="16.28999089631971 0.0 0.0 0.0 16.28999089631971 0.0 0.0 0.0 34.3005442915855" Properties=species:S:1:pos:R:3:initial_magmoms:R:1 pbc="T T T"
Si      -0.53827047       2.18751894      -0.53241335       0.00000000
Si       2.32184532       0.22294494      -0.26298242       0.00000000
Si      -0.21621717      -0.55092780       2.34176807       0.00000000
Si      -1.38952071      -0.90696204      -1.77855282       0.00000000
Si      -2.37511458      -1.86217506       0.12111529       0.00000000
Si       2.07889626      -1.16664093      -2.10375646       0.00000000
Si       1.13534784      -3.07354507      -0.97046584       0.00000000
Si      -0.61763535      -3.39240716       0.68899542       0.00000000
Si       1.83060392       0.28914750       3.08262594       0.00000000
Si       0.60354450       2.38265685      -2.63795343       0.00000000
