10
Lattice="16.28999089631971 0.0 0.0 0.0 16.28999089631971 0.0 0.0 0.0 34.3005442915855" Properties=species:S:1:pos:R:3:initial_magmoms:R:1 pbc="T T T"
Si      -1.09485090      -1.69847685      -1.22133128       0.00000000
Si      -1.50763950       1.18368027       1.54670845       0.00000000
Si       1.19197188      -1.50891012       1.54829656       0.00000000
Si       1.41720624       1.48296015      -1.42610565       0.00000000
Si       2.42136256      -2.92661905       0.11922876       0.00000000
Si      -2.81455362       2.56818366       0.16354166       0.00000000
Si       2.75545417       2.66792733       0.12383875       0.00000000
Si      -2.80069083      -0.53424684      -2.58642511       0.00000000
Si      -0.16224840       2.53648332       2.92263782       0.00000000
Si       2.55028488      -0.17290206       2.92915493       0.00000000
