10
Lattice="16.28999089631971 0.0 0.0 0.0 16.28999089631971 0.0 0.0 0.0 34.3005442915855" Properties=species:S:1:pos:R:3:initial_magmoms:R:1 pbc="T T T"
Si       1.35681039       1.35617508       1.35806221       0.00000000
Si      -1.35765747       1.35596331      -1.35885112       0.00000000
Si      -1.35817875      -1.35868374       1.35816511       0.00000000
Si       1.35769005      -1.36238157      -1.36077195       0.00000000
Si      -2.71419093      -2.71479366       0.00030871       0.00000000
Si       2.71393733      -0.00109143       2.71550701       0.00000000
Si       2.71525611       2.71461447       0.00065171       0.00000000
Si      -0.00086337       2.71406061       2.71609012       0.00000000
Si      -2.71476108       2.71560816       0.00106332       0.00000000
Si      -0.00096111      -2.71621089       2.71554131       0.00000000
