10
Lattice="16.28999089631971 0.0 0.0 0.0 16.28999089631971 0.0 0.0 0.0 34.3005442915855" Properties=species:S:1:pos:R:3:initial_magmoms:R:1 pbc="T T T"
Si       1.35827970       1.35607734      -1.35658728       0.00000000
Si      -1.35751086      -1.35790182      -1.35596987       0.00000000
Si      -1.35767376       1.35723393       1.35734190       0.00000000
Si       1.35731868      -1.35804843       1.35699889       0.00000000
Si       2.71351068       0.00167787      -2.71245426       0.00000000
Si       0.00070047       2.71313208       2.71430649       0.00000000
Si      -2.71086777      -0.00482184      -2.71783945       0.00000000
Si      -2.71428867       0.00042354       2.71454659       0.00000000
Si       2.71322723      -0.00094482       2.71564421       0.00000000
Si       2.71486275       2.71433754       0.00010290       0.00000000
