10
Lattice="16.28999089631971 0.0 0.0 0.0 16.28999089631971 0.0 0.0 0.0 34.3005442915855" Properties=species:S:1:pos:R:3:initial_magmoms:R:1 pbc="T T T"
Si      -1.35661491      -1.35681039       1.35720470       0.00000000
Si       1.35837423       1.35589815       1.35696459       0.00000000
Si      -1.35721764       1.35752715      -1.35737620       0.00000000
Si       1.35767376      -1.35723393      -1.35734190       0.00000000
Si      -0.00320913      -2.71178001       2.71403208       0.00000000
Si       2.71259451       0.00488700       2.71351758       0.00000000
Si      -2.71423980       0.00004887       2.71416929       0.00000000
Si       0.00016290      -2.71513575      -2.71331177       0.00000000
Si      -2.71322982       0.00141723      -2.71523260       0.00000000
Si      -2.71471221      -2.71471221       0.00006860       0.00000000
