10
Lattice="16.28999089631971 0.0 0.0 0.0 16.28999089631971 0.0 0.0 0.0 34.3005442915855" Properties=species:S:1:pos:R:3:initial_magmoms:R:1 pbc="T T T"
Si      -1.35601218      -1.35610992      -1.35785641       0.00000000
Si       1.35721764      -1.35752715       1.35737620       0.00000000
Si      -1.35808101       1.35726651       1.35751340       0.00000000
Si       1.35817875       1.35868374      -1.35816511       0.00000000
Si       0.00060273      -2.71433754       2.71458089       0.00000000
Si       2.71489140      -2.71476108       0.00003430       0.00000000
Si       2.71498914       2.71485882      -0.00010290       0.00000000
Si       2.71559187      -0.00162900       2.71434079       0.00000000
Si      -2.71528236      -2.71471221       0.00010290       0.00000000
Si      -0.00057015       2.71520091       2.71488960       0.00000000
