10
Lattice="16.28999089631971 0.0 0.0 0.0 16.28999089631971 0.0 0.0 0.0 34.3005442915855" Properties=species:S:1:pos:R:3:initial_magmoms:R:1 pbc="T T T"
Si       1.33751067       1.35009891       1.35446065       0.00000000
Si      -1.35422028       1.35101115      -1.35655298       0.00000000
Si       1.35830648      -1.36306575      -1.35521526       0.00000000
Si      -1.36959804      -1.35057132       1.37315446       0.00000000
Si       2.55594077      -0.03039714       2.76808977       0.00000000
Si       0.00230393       2.71023246      -2.71355188       0.00000000
Si      -2.71360449       2.71049310       0.00723742       0.00000000
Si      -2.71259451      -0.00488700      -2.71351758       0.00000000
Si       2.72038832       2.70961344       0.00637990       0.00000000
Si       2.71758644      -0.00493587      -2.71320887       0.00000000
