10
Lattice="16.28999089631971 0.0 0.0 0.0 16.28999089631971 0.0 0.0 0.0 34.3005442915855" Properties=species:S:1:pos:R:3:initial_magmoms:R:1 pbc="T T T"
Si      -1.13621121      -2.31454836      -0.27183197       0.00000000
Si      -0.79646697      -0.45520776       2.45852719       0.00000000
Si      -0.92553264       2.57039910       0.43335332       0.00000000
Si      -0.82920987       2.04089265      -1.96120332       0.00000000
Si      -2.39484177       1.07742060       1.74634459       0.00000000
Si       2.38795666      -1.31274594      -1.86468153       0.00000000
Si      -1.59039270       0.06616998      -3.17537466       0.00000000
Si      -2.92832298      -1.21857345      -1.62807624       0.00000000
Si       1.29575272       3.17941704       1.01639430       0.00000000
Si       0.76232313       0.86367951       3.69808095       0.00000000
