10
Lattice="16.28999089631971 0.0 0.0 0.0 16.28999089631971 0.0 0.0 0.0 34.3005442915855" Properties=species:S:1:pos:R:3:initial_magmoms:R:1 pbc="T T T"
Si       1.35835794       1.35694071       1.35648438       0.00000000
Si      -1.35709058      -1.35817875       1.35693029       0.00000000
Si      -1.35742289       1.35511623      -1.36265848       0.00000000
Si       1.35614250      -1.35918873      -1.36327589       0.00000000
Si       0.00104256       2.71435383       2.71365478       0.00000000
Si      -2.71472865      -0.00016290       2.71413499       0.00000000
Si      -2.71340986       2.71554300      -0.00072031       0.00000000
Si       0.00055386      -2.71533123       2.71447799       0.00000000
Si       2.71539639       0.00017919       2.71451229       0.00000000
Si       2.71614573       2.71394658      -0.00006860       0.00000000
