10
Lattice="16.28999089631971 0.0 0.0 0.0 16.28999089631971 0.0 0.0 0.0 34.3005442915855" Properties=species:S:1:pos:R:3:initial_magmoms:R:1 pbc="T T T"
Si      -1.49540571       1.23810516       1.31103614       0.00000000
Si      -1.35596331      -1.35713619      -1.36101206       0.00000000
Si       1.35467640       1.36350558      -1.36094346       0.00000000
Si       1.52664993      -1.21586931       1.36927849       0.00000000
Si      -0.18393039       2.60667108       2.72463096       0.00000000
Si      -2.72676192      -2.70272277       0.03604989       0.00000000
Si      -2.71361915       0.00506619      -2.71879986       0.00000000
Si       2.71498914       0.00135207      -2.71753074       0.00000000
Si       0.00055386      -2.71305063      -2.72048059       0.00000000
Si       2.70462870       2.73246898       0.01862521       0.00000000
