10
Lattice="16.28999089631971 0.0 0.0 0.0 16.28999089631971 0.0 0.0 0.0 34.3005442915855" Properties=species:S:1:pos:R:3:initial_magmoms:R:1 pbc="T T T"
Si       1.35653183       1.35601969      -1.35816511       0.00000000
Si      -1.35929529       1.35798866       1.35713609       0.00000000
Si      -1.35849741      -1.35927018      -1.35775350       0.00000000
Si       1.35765584      -1.36220238       1.35778780       0.00000000
Si      -0.01019265       2.71282650       2.71125374       0.00000000
Si       2.71357028       2.71245509      -0.00174933       0.00000000
Si      -0.00116311       2.71341620      -2.71533551       0.00000000
Si      -2.71683873       2.71277763      -0.00140632       0.00000000
Si       2.71425446      -0.00179190      -2.71547271       0.00000000
Si      -2.71459071      -2.71671588       0.00020580       0.00000000
