10
Lattice="16.290000149 0.0 0.0 0.0 16.290000149 0.0 0.0 0.0 29.1751946751" Properties=species:S:1:pos:R:3:initial_magmoms:R:1 pbc="T T T"
Si      -1.36738261      -1.35783667      -1.32916352       0.00000000
Si      -1.43780428       1.33481890       1.28105362       0.00000000
Si       1.35340579       1.35158131      -1.36198561       0.00000000
Si       1.36321237      -1.32608746       1.38048269       0.00000000
Si      -0.08733069       2.67776651       2.59335388       0.00000000
Si      -0.09347202      -2.62472627       2.68333018       0.00000000
Si       0.00382815      -2.71453304      -2.66176971       0.00000000
Si      -2.71042796       0.02552643      -2.67253536       0.00000000
Si       2.73199592      -0.01444923      -2.67381907       0.00000000
Si       2.73056240       2.69154785      -0.02935025       0.00000000
