10
Lattice="16.290000149 0.0 0.0 0.0 16.290000149 0.0 0.0 0.0 29.1751946751" Properties=species:S:1:pos:R:3:initial_magmoms:R:1 pbc="T T T"
Si       1.72102223      -0.75523699      -1.38019093       0.00000000
Si       1.34685721       1.35757603       1.34118370       0.00000000
Si      -1.42678247       1.16776495      -1.46328189       0.00000000
Si      -1.19210873      -1.69139072       1.18970609       0.00000000
Si      -1.65259119      -0.67813642      -2.90135641       0.00000000
Si       0.65805085      -0.84382201      -3.48812793       0.00000000
Si       2.56673387      -2.59931387      -0.25598316       0.00000000
Si      -2.65511478      -0.41458050       2.53541194       0.00000000
Si      -0.09376524       2.54211968       2.71144398       0.00000000
Si      -2.91190269       2.36216405      -0.13373909       0.00000000
