10
Lattice="16.290000149 0.0 0.0 0.0 16.290000149 0.0 0.0 0.0 29.1751946751" Properties=species:S:1:pos:R:3:initial_magmoms:R:1 pbc="T T T"
Si       0.34774263      -0.88185916      -2.13533250       0.00000000
Si      -1.82200394       1.45745002       0.16437305       0.00000000
Si       1.62124597       1.68715532       0.07112912       0.00000000
Si       0.22779936      -1.51345504       1.83724953       0.00000000
H       -0.89920801      -1.45505539       2.84580684       0.00000000
Si       1.05979483       2.72293868       2.08051231       0.00000000
Si       2.29006451      -0.81891460       2.73730429       0.00000000
Si       1.40307400       0.88034419      -3.31756974       0.00000000
Si      -3.65084967       0.16299774       0.80138425       0.00000000
H       -1.81998398       0.30970548       3.28428084       0.00000000
