10
Lattice="16.290000149 0.0 0.0 0.0 16.290000149 0.0 0.0 0.0 29.1751946751" Properties=species:S:1:pos:R:3:initial_magmoms:R:1 pbc="T T T"
Si      -1.37132479      -1.40633200      -1.31259201       0.00000000
Si      -1.34643367       1.27998676       1.45981004       0.00000000
Si       1.33986880      -1.33592662       1.42229074       0.00000000
Si       1.34126974       1.41700195      -1.36091197       0.00000000
Si       2.67100616      -0.02629206      -2.67280669       0.00000000
Si       0.06046848      -2.77874823      -2.59663901       0.00000000
Si      -2.67977018      -2.69614163       0.15804203       0.00000000
Si      -2.77980708       2.59934645       0.17598477       0.00000000
Si      -2.72000648      -0.04297302      -2.68890556       0.00000000
Si       2.68447799       2.74734111       0.03378488       0.00000000
