10
Lattice="16.290000149 0.0 0.0 0.0 16.290000149 0.0 0.0 0.0 29.1751946751" Properties=species:S:1:pos:R:3:initial_magmoms:R:1 pbc="T T T"
Si       1.42398059       1.43650108       1.16458625       0.00000000
Si       1.43605800      -1.24484923      -1.36761643       0.00000000
Si      -1.29098251       1.41473764      -1.35740511       0.00000000
Si      -1.63818758      -1.05564088       1.43305639       0.00000000
H        0.25782835      -2.67550220       1.68159987       0.00000000
H       -1.09960759       1.40703247       2.80496157       0.00000000
Si      -0.06388938       2.51191802       2.58906513       0.00000000
Si      -2.62436789       2.48345939       0.26412304       0.00000000
Si      -3.31683951       0.62273413       1.68413811       0.00000000
Si       0.07689923      -2.65634516      -2.67877885       0.00000000
