10
Lattice="16.290000149 0.0 0.0 0.0 16.290000149 0.0 0.0 0.0 29.1751946751" Properties=species:S:1:pos:R:3:initial_magmoms:R:1 pbc="T T T"
Si       1.37888335       1.31839858      -1.36399870       0.00000000
Si      -1.37339362      -1.32649471      -1.36396953       0.00000000
Si       1.35575155      -1.37046142       1.33937484       0.00000000
Si      -1.36930483       1.37922544       1.32245322       0.00000000
Si      -0.05449005       2.63775827      -2.64782397       0.00000000
Si       0.04554684      -2.65772981      -2.66576671       0.00000000
Si       2.72618039      -0.00941562       2.66745887       0.00000000
Si      -2.72945468       0.01674612       2.66681702       0.00000000
Si      -0.01511712       2.73230543       2.68382616       0.00000000
Si      -0.00026064      -2.72614781       2.69721757       0.00000000
