10
Lattice="16.290000149 0.0 0.0 0.0 16.290000149 0.0 0.0 0.0 29.1751946751" Properties=species:S:1:pos:R:3:initial_magmoms:R:1 pbc="T T T"
Si       1.35506737      -1.36664956       1.33712835       0.00000000
Si      -1.35547462      -1.36800163      -1.33753680       0.00000000
Si       1.37502262       1.33644790      -1.36201479       0.00000000
Si      -1.37824804       1.34555401       1.35749263       0.00000000
Si       2.64893321       0.06955830       2.65047891       0.00000000
Si       0.02881701      -2.72262266      -2.67215608       0.00000000
Si      -2.68398604      -0.00726534      -2.71136754       0.00000000
Si      -2.70736382       2.70487307      -0.00781895       0.00000000
Si      -2.70317240      -2.72168435       0.03842373       0.00000000
Si       0.03197727       2.71981100      -2.70538663       0.00000000
