10
Lattice="16.290000149 0.0 0.0 0.0 16.290000149 0.0 0.0 0.0 29.1751946751" Properties=species:S:1:pos:R:3:initial_magmoms:R:1 pbc="T T T"
H       -0.17550846       1.38915908       0.60766095       0.00000000
Si       0.83093662      -1.24312575       1.71478665       0.00000000
Si       1.89465734       0.01700676      -1.33931649       0.00000000
Si      -1.90304669      -0.54703775      -1.28324176       0.00000000
Si       0.64224955       1.12482125      -2.94001354       0.00000000
Si      -2.63013455       1.64365776      -0.88144098       0.00000000
Si      -0.69232501       2.67026986      -1.78342130       0.00000000
Si       1.87113458       0.60896582       2.66834872       0.00000000
Si       2.33720777      -2.27385922      -1.04199208       0.00000000
Si      -1.00147663      -2.26488343       2.65732049       0.00000000
