10
Lattice="16.290000149 0.0 0.0 0.0 16.290000149 0.0 0.0 0.0 29.1751946751" Properties=species:S:1:pos:R:3:initial_magmoms:R:1 pbc="T T T"
Si       0.65085067      -0.42329565       2.13291096       0.00000000
Si      -1.07035075      -1.76068838      -1.06305657       0.00000000
Si      -1.70425982       1.59575212      -0.01344976       0.00000000
Si       1.78556321       0.58733596      -1.44388038       0.00000000
Si      -0.31291461       3.03095001      -1.19177753       0.00000000
H        3.09182574       1.11941623      -0.51660517       0.00000000
H       -0.55353421      -3.04179915       1.32802569       0.00000000
Si      -1.99992332      -0.71850304      -2.89680508       0.00000000
Si       0.75987964       1.92331145      -3.05960267       0.00000000
Si      -1.25561692      -1.21515256       3.25521651       0.00000000
