10
Lattice="16.290000149 0.0 0.0 0.0 16.290000149 0.0 0.0 0.0 29.1751946751" Properties=species:S:1:pos:R:3:initial_magmoms:R:1 pbc="T T T"
Si       1.36738261       1.35783667       1.32916352       0.00000000
Si       1.37121076      -1.35669637      -1.33260619       0.00000000
Si      -1.34304535       1.38336310      -1.34337184       0.00000000
Si      -1.37502262      -1.33644790       1.36201479       0.00000000
Si      -0.07042167       2.69265557       2.61021714       0.00000000
Si      -0.00185706      -2.70386309      -2.67589051       0.00000000
Si      -2.69079851       0.02109555      -2.69339562       0.00000000
Si      -0.01995525      -2.70309746       2.69914314       0.00000000
Si       2.72106533       0.00801468      -2.68925274       0.00000000
Si       2.72078840       2.70941798      -0.03282209       0.00000000
