10
Lattice="16.290000149 0.0 0.0 0.0 16.290000149 0.0 0.0 0.0 29.1751946751" Properties=species:S:1:pos:R:3:initial_magmoms:R:1 pbc="T T T"
Si       1.21508740      -1.41408604       1.45048127       0.00000000
Si      -1.47360970       1.29844301       1.34669781       0.00000000
Si      -1.49395591      -1.25082766      -1.37059230       0.00000000
Si       1.61888392       1.48786345      -0.93742818       0.00000000
Si       2.55852371      -2.76845295       0.10751059       0.00000000
H        1.17302662      -1.11306313      -3.44427761       0.00000000
Si       0.89179606       3.67855896      -0.53562740       0.00000000
Si      -2.80978068      -2.61097751       0.11340398       0.00000000
H        3.07317369      -0.68059621      -2.20261050       0.00000000
Si      -0.18145431       2.58299781       2.85061783       0.00000000
