10
Lattice="16.290000149 0.0 0.0 0.0 16.290000149 0.0 0.0 0.0 29.1751946751" Properties=species:S:1:pos:R:3:initial_magmoms:R:1 pbc="T T T"
Si       1.42500034      -1.36081774      -1.26935437       0.00000000
Si       1.35689185       1.34819299       1.35556707       0.00000000
Si      -1.32414895      -1.38763108       1.38272918       0.00000000
Si      -1.33986880       1.33592662      -1.42229074       0.00000000
Si       0.03678282      -2.70640433      -2.54664148       0.00000000
Si      -2.68630247       2.61591338       0.03751930       0.00000000
Si       2.69744483       2.70168023      -0.02870839       0.00000000
Si       2.70234812      -0.03150486       2.71052146       0.00000000
Si       0.01277136       2.67946067       2.74182645       0.00000000
Si      -2.71119359      -0.07040538      -2.73488275       0.00000000
