10
Lattice="16.290000149 0.0 0.0 0.0 16.290000149 0.0 0.0 0.0 29.1751946751" Properties=species:S:1:pos:R:3:initial_magmoms:R:1 pbc="T T T"
Si       1.27197958      -1.36089919      -1.42272837       0.00000000
Si       1.35915877       1.41149593       1.31116242       0.00000000
Si      -1.39132305       1.35620767      -1.35019883       0.00000000
Si      -1.29552156      -1.35783667       1.44603935       0.00000000
Si       2.61995917      -2.69669549      -0.04717629       0.00000000
Si      -0.07689923       2.65634516       2.67877885       0.00000000
Si      -2.72242783      -2.62941779       0.04183723       0.00000000
Si       2.61414364       0.00790065      -2.78556006       0.00000000
Si      -0.03563666       2.70322778      -2.74389788       0.00000000
Si      -0.10736153      -2.72238482      -2.75638487       0.00000000
