10
Lattice="16.290000149 0.0 0.0 0.0 16.290000149 0.0 0.0 0.0 29.1751946751" Properties=species:S:1:pos:R:3:initial_magmoms:R:1 pbc="T T T"
Si       1.33392295       1.33900869      -1.32981121       0.00000000
Si      -1.33029028       1.41993741       1.28572165       0.00000000
Si       1.43086474      -1.34592542       1.26512397       0.00000000
Si      -1.35997066      -1.28287221      -1.40938655       0.00000000
Si       0.05128092      -2.69066494       2.59825531       0.00000000
Si      -2.67810860       0.04663013       2.62425041       0.00000000
Si       0.05515794       2.76961279       2.61144250       0.00000000
Si       2.78055642       0.04150692       2.60187304       0.00000000
Si      -2.71293662      -2.67764923      -0.10132545       0.00000000
Si      -0.04018743      -2.77071400      -2.61991789       0.00000000
