10
Lattice="16.290000149 0.0 0.0 0.0 16.290000149 0.0 0.0 0.0 29.1751946751" Properties=species:S:1:pos:R:3:initial_magmoms:R:1 pbc="T T T"
Si      -0.53558262      -0.25881552       1.38547164       0.00000000
H       -0.66609811      -0.93082690      -1.61875650       0.00000000
H       -1.58687407       0.83393398      -1.18028250       0.00000000
H        1.27887904       1.75255967       0.42642465       0.00000000
Si       0.46090926      -0.98922655      -2.62731381       0.00000000
Si       2.18323469       1.82454518      -0.79330272       0.00000000
Si       2.52317441      -0.29468610      -1.72725905       0.00000000
Si       1.15779547      -1.18698715       2.69263707       0.00000000
Si      -2.32976324      -1.85816774       1.26273160       0.00000000
Si      -1.38810349       1.61479513       2.50010996       0.00000000
