10
Lattice="16.290000149 0.0 0.0 0.0 16.290000149 0.0 0.0 0.0 29.1751946751" Properties=species:S:1:pos:R:3:initial_magmoms:R:1 pbc="T T T"
H       -0.07004700      -1.04586688      -1.09068548       0.00000000
Si       2.19637909       0.17205498       0.66472764       0.00000000
Si      -1.61678251      -0.68504338       1.56259425       0.00000000
Si      -0.44321832       2.13293117      -0.88485448       0.00000000
H       -1.88429690       2.42000984      -0.44375471       0.00000000
H        1.09414067       0.73935424      -2.99710940       0.00000000
Si      -3.14887332      -1.41279913      -0.04215816       0.00000000
Si       3.00099270      -2.08500599       0.43342669       0.00000000
H       -1.42517953      -3.34683592       0.71937278       0.00000000
Si       3.51518655      -0.10166589      -1.24405948       0.00000000
