10
Lattice="16.290000149 0.0 0.0 0.0 16.290000149 0.0 0.0 0.0 29.1751946751" Properties=species:S:1:pos:R:3:initial_magmoms:R:1 pbc="T T T"
Si      -1.18853470      -1.14903699      -1.69201542       0.00000000
Si       0.56177695      -1.73189743       1.52670876       0.00000000
Si      -1.99210412       0.88502593       0.97911953       0.00000000
Si       1.44044554       1.42455074      -1.34404287       0.00000000
H        0.46463967       2.32463841       1.97513150       0.00000000
Si      -2.72868905       2.21078760      -0.81007846       0.00000000
Si      -2.47968011      -2.58774146      -0.41186622       0.00000000
Si      -2.62270631       0.47933977      -2.61683991       0.00000000
Si      -3.51031584      -0.96515970       0.90498536       0.00000000
Si       0.24255810      -0.99784070       3.72911503       0.00000000
