10
Lattice="16.290000149 0.0 0.0 0.0 16.290000149 0.0 0.0 0.0 29.1751946751" Properties=species:S:1:pos:R:3:initial_magmoms:R:1 pbc="T T T"
Si      -1.26634063       1.41739291       1.33176536       0.00000000
Si       1.63042865      -1.18967500       1.21188886       0.00000000
Si       0.67598125       1.75391174      -1.51279219       0.00000000
Si      -1.35155362      -1.96441112      -0.47202547       0.00000000
Si       0.29795876      -2.59606076       2.57182259       0.00000000
Si       0.15645894       0.83543266      -3.59966469       0.00000000
Si      -2.58770399       0.08638587       2.69351816       0.00000000
Si       0.23937992       2.80049538       2.49943018       0.00000000
Si      -2.40989864       2.91133254      -0.05732926       0.00000000
Si      -0.43719754      -2.86665070      -2.45024955       0.00000000
