10
Lattice="16.290000149 0.0 0.0 0.0 16.290000149 0.0 0.0 0.0 29.1751946751" Properties=species:S:1:pos:R:3:initial_magmoms:R:1 pbc="T T T"
Si      -1.34721559      -1.29015172       1.37082570       0.00000000
Si       1.25450920       1.31865271       1.47060486       0.00000000
Si       1.36490653      -1.36984240      -1.34383864       0.00000000
Si      -1.42508179       1.36459539      -1.29677905       0.00000000
Si       2.41764779       2.75869524      -0.03264704       0.00000000
Si       2.70879896       0.00860112      -2.65716003       0.00000000
Si      -0.04373865      -2.69500133      -2.70042684       0.00000000
Si      -0.11657124       2.71176374      -2.71930319       0.00000000
Si      -2.75848347      -2.68460831       0.07080820       0.00000000
Si      -2.76890907       0.01837512      -2.68516822       0.00000000
