10
Lattice="16.290000149 0.0 0.0 0.0 16.290000149 0.0 0.0 0.0 29.1751946751" Properties=species:S:1:pos:R:3:initial_magmoms:R:1 pbc="T T T"
Si      -1.30673494      -1.31400028      -1.44644780       0.00000000
Si      -1.32352993       1.39419595       1.36501983       0.00000000
Si       1.26109036      -1.39173616       1.43083907       0.00000000
Si       1.36682875       1.35913987      -1.37698166       0.00000000
Si      -2.66175344      -2.66888846      -0.11217862       0.00000000
Si       2.66084120       0.02513547       2.68893182       0.00000000
Si       2.69110802      -2.67379175       0.01870130       0.00000000
Si      -2.67076181       2.72776052      -0.04247908       0.00000000
Si       0.07625349       2.76503205       2.67892473       0.00000000
Si      -2.68082903       0.03247737      -2.78325522       0.00000000
