10
Lattice="16.290000149 0.0 0.0 0.0 16.290000149 0.0 0.0 0.0 29.1751946751" Properties=species:S:1:pos:R:3:initial_magmoms:R:1 pbc="T T T"
Si      -1.44062245       1.18454365       1.37026028       0.00000000
Si      -1.34685721      -1.35757603      -1.34118370       0.00000000
Si       1.28594890      -1.49822389       1.33350275       0.00000000
Si       1.31582476       1.36014985      -1.48399628       0.00000000
Si       2.16834563      -0.51346080      -2.59863459       0.00000000
Si       0.37416501      -2.11281302      -2.72137463       0.00000000
Si      -0.01080027       2.54977598       2.63439171       0.00000000
Si      -2.83447632       2.45620622      -0.14042021       0.00000000
Si       2.70163136      -0.20624769       2.67853670       0.00000000
Si      -2.78841145      -0.27842868       2.59370982       0.00000000
