10
Lattice="16.290000149 0.0 0.0 0.0 16.290000149 0.0 0.0 0.0 29.1751946751" Properties=species:S:1:pos:R:3:initial_magmoms:R:1 pbc="T T T"
Si       0.16197147      -0.79068403      -1.27685239       0.00000000
H       -1.39255066       2.03965463      -0.46356467       0.00000000
Si       0.92748745      -0.15022638       2.53993410       0.00000000
Si      -2.04835349      -0.71672743      -2.08109581       0.00000000
H       -1.31613427      -2.71156826       0.46481920       0.00000000
Si       1.02223009      -2.86798485      -0.48725493       0.00000000
Si      -0.79159627       1.47952297       2.64289336       0.00000000
Si       2.79619482       0.74328013       1.26290665       0.00000000
Si       0.88716970      -2.43973703       1.86779596       0.00000000
Si       1.24137946       0.37970361      -2.98278438       0.00000000
