10
Lattice="16.290000149 0.0 0.0 0.0 16.290000149 0.0 0.0 0.0 29.1751946751" Properties=species:S:1:pos:R:3:initial_magmoms:R:1 pbc="T T T"
Si       1.34775316       1.36226755       1.35002378       0.00000000
Si      -1.34252896       1.35984034      -1.36195644       0.00000000
Si       1.35917245      -1.35469270      -1.35457511       0.00000000
Si      -1.36821014      -1.36480879       1.34404287       0.00000000
Si      -0.03406239      -2.69755886      -2.68298008       0.00000000
Si       2.69079851      -0.02109555       2.69339562       0.00000000
Si      -2.67963172      -0.01567098      -2.70526993       0.00000000
Si      -0.04098564       2.71288775       2.68368028       0.00000000
Si       2.69583212       2.70989039      -0.02879592       0.00000000
Si       2.68894145      -2.72495864       0.01750512       0.00000000
