10
Lattice="16.290000149 0.0 0.0 0.0 16.290000149 0.0 0.0 0.0 29.1751946751" Properties=species:S:1:pos:R:3:initial_magmoms:R:1 pbc="T T T"
Si      -0.64571932       0.84010789      -1.08006571       0.00000000
Si       2.14565366       0.24936732       1.31063727       0.00000000
Si       2.25163640      -1.48208050      -0.49612419       0.00000000
Si       0.38641509       1.21961602       2.56998455       0.00000000
Si      -2.07879950       2.06562089       0.20518914       0.00000000
Si       0.41611176      -2.66751522      -1.50059696       0.00000000
Si      -2.08608113      -0.48977514      -2.29022361       0.00000000
Si      -1.37982817      -0.26386542       2.90360290       0.00000000
Si      -0.69370966      -2.31400104       2.13749146       0.00000000
Si       0.85498066       2.20141433      -2.24246381       0.00000000
