10
Lattice="16.290000149 0.0 0.0 0.0 16.290000149 0.0 0.0 0.0 29.1751946751" Properties=species:S:1:pos:R:3:initial_magmoms:R:1 pbc="T T T"
Si       1.37958382       1.34473951      -1.33313135       0.00000000
Si       1.37065690      -1.34745994       1.34092112       0.00000000
Si      -1.34873056       1.37740096       1.34906100       0.00000000
Si      -1.37907883      -1.34322454      -1.35950572       0.00000000
Si      -0.05128092       2.69066494      -2.59825531       0.00000000
Si      -0.00371412      -2.69014691       2.68306760       0.00000000
Si      -2.72569169       0.02176344       2.68064606       0.00000000
Si       2.72528444      -2.70138701      -0.02392366       0.00000000
Si       2.72865647       0.01550808       2.69855963       0.00000000
Si      -0.04308705      -2.78469408      -2.64858252       0.00000000
