10
Lattice="16.290000149 0.0 0.0 0.0 16.290000149 0.0 0.0 0.0 29.1751946751" Properties=species:S:1:pos:R:3:initial_magmoms:R:1 pbc="T T T"
Si      -1.37065690       1.34745994      -1.34092112       0.00000000
Si      -1.37437102      -1.34268697       1.34214648       0.00000000
Si       1.35462754      -1.35392707      -1.36484478       0.00000000
Si       1.35799957       1.36296802       1.35763851       0.00000000
Si       0.00892692       2.69219945      -2.67405247       0.00000000
Si      -0.01211976      -2.73702953       2.64689036       0.00000000
Si       2.71870328      -2.69304653      -0.00137123       0.00000000
Si       2.70904331       0.01752804      -2.70979208       0.00000000
Si      -2.72644103       0.02746494       2.69281212       0.00000000
Si      -2.72855874      -2.69576696      -0.01922645       0.00000000
