10
Lattice="16.290000149 0.0 0.0 0.0 16.290000149 0.0 0.0 0.0 29.1751946751" Properties=species:S:1:pos:R:3:initial_magmoms:R:1 pbc="T T T"
Si       0.96816358      -1.45831339      -1.51066241       0.00000000
Si      -1.69337810       0.92817163      -1.30716542       0.00000000
Si      -1.26571672      -1.48312306       1.32642105       0.00000000
Si       1.50658066       1.28415700       1.28557578       0.00000000
H       -1.15779547       1.18698715      -2.69263707       0.00000000
Si      -0.92724310      -2.95872015      -1.83042254       0.00000000
Si      -2.64184706      -2.51525747      -0.30569769       0.00000000
Si      -2.57577482      -0.05659146       2.62497191       0.00000000
H        0.12108357       2.93954682      -2.26621242       0.00000000
Si       0.16314435       2.63852390       2.62854646       0.00000000
