10
Lattice="16.290000149 0.0 0.0 0.0 16.290000149 0.0 0.0 0.0 29.1751946751" Properties=species:S:1:pos:R:3:initial_magmoms:R:1 pbc="T T T"
Si       1.34234651       1.36099693       1.35396243       0.00000000
Si      -1.33631758       1.37523439      -1.35320388       0.00000000
Si       1.36572429      -1.35114148      -1.34958616       0.00000000
Si      -1.35400852      -1.34783461       1.37374322       0.00000000
Si      -2.69549003       0.01044189      -2.68443884       0.00000000
Si       2.67146228       0.00167787       2.71927402       0.00000000
Si      -0.00441459      -2.72031599      -2.67431504       0.00000000
Si       2.69423570      -2.71187777       0.02424459       0.00000000
Si      -2.68348430       2.72298755       0.01318719       0.00000000
Si       2.69294879       2.72655506      -0.00994874       0.00000000
