10
Lattice="16.290000149 0.0 0.0 0.0 16.290000149 0.0 0.0 0.0 29.1751946751" Properties=species:S:1:pos:R:3:initial_magmoms:R:1 pbc="T T T"
Si      -1.36014985      -1.36247932       1.34436380       0.00000000
Si       1.35418771       1.35307999       1.36137293       0.00000000
Si       1.36930483      -1.37922544      -1.32245322       0.00000000
Si      -1.38373777       1.33820722      -1.35054894       0.00000000
Si      -0.02117700       2.70000236      -2.68120039       0.00000000
Si       2.71643897      -0.04126257       2.66611682       0.00000000
Si      -0.00408879      -2.70572015      -2.68642275       0.00000000
Si      -2.73509103       0.00179190       2.67696999       0.00000000
Si       2.72855874       2.69576696       0.01922645       0.00000000
Si      -0.00954594      -2.73934272       2.68659780       0.00000000
