10
Lattice="16.290000149 0.0 0.0 0.0 16.290000149 0.0 0.0 0.0 29.1751946751" Properties=species:S:1:pos:R:3:initial_magmoms:R:1 pbc="T T T"
Si       1.17129988       0.55345276       1.04800217       0.00000000
Si      -1.30626253      -0.53208027      -0.92727521       0.00000000
Si      -0.07550415      -2.37954548      -1.59646665       0.00000000
Si      -0.36704628       1.82522936       2.24646081       0.00000000
Si       2.84035049       1.34126974      -0.39949594       0.00000000
Si      -3.09182574      -1.11941623       0.51660517       0.00000000
Si       2.31485789      -0.94048687       2.43709679       0.00000000
Si      -2.33194610       0.80389522      -2.54299749       0.00000000
Si      -1.84119356       3.03311658       0.79309849       0.00000000
H       -0.34301853       0.72550774      -3.60281562       0.00000000
