10
Lattice="16.290000149 0.0 0.0 0.0 16.290000149 0.0 0.0 0.0 29.1751946751" Properties=species:S:1:pos:R:3:initial_magmoms:R:1 pbc="T T T"
Si       0.08643474      -0.69048424      -2.23006144       0.00000000
Si      -0.98681563      -1.78604539       1.15618379       0.00000000
Si       1.83897812       0.88166368       1.18623132       0.00000000
Si      -1.63062901       1.73788238      -0.08428189       0.00000000
H        2.54106083      -0.94498291      -0.74095950       0.00000000
Si      -2.30542598      -0.46273374       2.55346847       0.00000000
Si       0.55161199       2.33105015       2.51454584       0.00000000
Si      -2.11159127      -0.30294513      -3.03981897       0.00000000
Si      -2.07127352       1.98656552      -2.36768083       0.00000000
Si       2.02424429       0.33612786      -3.13204176       0.00000000
