10
Lattice="16.290000149 0.0 0.0 0.0 16.290000149 0.0 0.0 0.0 29.1751946751" Properties=species:S:1:pos:R:3:initial_magmoms:R:1 pbc="T T T"
Si       1.76731841       1.00660798       1.15895543       0.00000000
Si       1.34080222      -1.30189681      -1.42267002       0.00000000
Si      -1.23251770       1.49094226      -1.36078943       0.00000000
Si      -1.30127779      -1.29684691       1.49499533       0.00000000
H       -3.15506352      -0.79783534      -1.58132473       0.00000000
Si      -2.30161412       0.46589400       2.76172393       0.00000000
Si      -2.50859486       0.02844234      -2.65809364       0.00000000
Si       3.42016698      -0.64661527       1.25208265       0.00000000
Si       2.75810880      -2.52486857      -0.04563000       0.00000000
Si       2.68882742       2.73748566      -0.12163139       0.00000000
