10
Lattice="16.290000149 0.0 0.0 0.0 16.290000149 0.0 0.0 0.0 29.1751946751" Properties=species:S:1:pos:R:3:initial_magmoms:R:1 pbc="T T T"
Si       1.48512022      -1.19439910      -1.32954280       0.00000000
Si      -1.15057900      -1.61929117       1.20829069       0.00000000
Si      -1.75586654       1.17221212      -1.02016903       0.00000000
Si       1.42428358       1.45161820       1.33450258       0.00000000
H        0.64715284       2.40313340      -0.03903641       0.00000000
H       -2.04978701      -0.85967218       2.17445643       0.00000000
Si      -3.36232119       1.36743148       0.66534031       0.00000000
Si       2.91190269      -2.36216405       0.13373909       0.00000000
Si       2.64917756       0.35650665      -2.63338225       0.00000000
Si      -0.98052769       3.12881707      -2.02540036       0.00000000
