10
Lattice="16.290000149 0.0 0.0 0.0 16.290000149 0.0 0.0 0.0 29.1751946751" Properties=species:S:1:pos:R:3:initial_magmoms:R:1 pbc="T T T"
H        0.64571932      -0.84010789       1.08006571       0.00000000
Si      -1.43308018       1.22551300       1.28525485       0.00000000
Si      -1.44036181      -1.32988303      -1.21015790       0.00000000
Si       1.50069997       1.36130644      -1.16239811       0.00000000
Si       0.05310540       2.23927229       2.75510116       0.00000000
Si       0.08034228      -2.64684321      -2.40777047       0.00000000
Si       1.06183108      -3.50762311      -0.42053126       0.00000000
Si       0.15902298       2.70822881      -2.54588584       0.00000000
Si       2.79137298      -0.59074057       2.39070298       0.00000000
Si      -2.68071500       0.05939334      -2.58346349       0.00000000
