10
Lattice="16.290000149 0.0 0.0 0.0 16.290000149 0.0 0.0 0.0 29.1751946751" Properties=species:S:1:pos:R:3:initial_magmoms:R:1 pbc="T T T"
Si      -1.34368066      -1.32714631      -1.40726552       0.00000000
Si      -1.38580660       1.34993602       1.35460429       0.00000000
Si       1.35568639       1.34702011      -1.39369905       0.00000000
Si       1.39132305      -1.35620767       1.35019883       0.00000000
Si      -2.68377752      -2.67564881      -0.03463096       0.00000000
Si       2.66330262      -2.71710686      -0.07252953       0.00000000
Si      -2.71723718       2.66532095      -0.08807991       0.00000000
Si       0.02344131       2.71487513       2.67157258       0.00000000
Si       2.75048182       0.05528826       2.66136126       0.00000000
Si      -2.73712727      -0.03479544       2.70950033       0.00000000
