10
Lattice="16.290000149 0.0 0.0 0.0 16.290000149 0.0 0.0 0.0 29.1751946751" Properties=species:S:1:pos:R:3:initial_magmoms:R:1 pbc="T T T"
Si       1.36029646      -1.35154873      -1.35267873       0.00000000
Si       1.37411038       1.36373365       1.33170176       0.00000000
Si      -1.35456238       1.35153244      -1.36913354       0.00000000
Si      -1.35347095      -1.34736220       1.37435590       0.00000000
Si       0.00083079       2.72280836       2.65252117       0.00000000
Si       2.68411961      -2.71598285       0.03985332       0.00000000
Si      -2.71365338      -2.69306282       0.00665194       0.00000000
Si      -2.72334593       0.03989421       2.68516822       0.00000000
Si       0.00097740      -2.69511536      -2.71647320       0.00000000
Si       2.71583624       0.02601513      -2.70868342       0.00000000
