10
Lattice="16.290000149 0.0 0.0 0.0 16.290000149 0.0 0.0 0.0 29.1751946751" Properties=species:S:1:pos:R:3:initial_magmoms:R:1 pbc="T T T"
Si       1.34037379       1.36295173       1.36466973       0.00000000
Si      -1.35103071       1.35954712      -1.35924314       0.00000000
Si      -1.35875543      -1.35163018       1.36277334       0.00000000
Si       1.36875097      -1.35294967      -1.35232862       0.00000000
Si      -2.68155907       2.70876638       0.03171344       0.00000000
Si       2.70720254       0.00552231       2.69278294       0.00000000
Si       0.00879660      -2.70759350      -2.70529910       0.00000000
Si      -2.71086779      -2.70451469       0.00236319       0.00000000
Si       2.70873380       2.70666497       0.02167717       0.00000000
Si       2.71699283      -2.71404434       0.01304131       0.00000000
