10
Lattice="16.290000149 0.0 0.0 0.0 16.290000149 0.0 0.0 0.0 29.1751946751" Properties=species:S:1:pos:R:3:initial_magmoms:R:1 pbc="T T T"
Si       1.35721765      -1.39512122      -1.28840577       0.00000000
Si       1.39323484       1.34286616       1.32840496       0.00000000
Si      -1.32434606      -1.38440566       1.36137293       0.00000000
Si      -1.29353353       1.35729910      -1.42803825       0.00000000
Si      -2.64556933       2.68188788      -0.02228985       0.00000000
Si       2.70111008      -0.06530661      -2.63814364       0.00000000
Si       0.03406239       2.69755886       2.68298008       0.00000000
Si      -2.65289608      -0.03862359      -2.74720343       0.00000000
Si      -2.70428663      -0.03642444       2.70229406       0.00000000
Si      -2.63903264      -2.76811086      -0.00218814       0.00000000
