10
Lattice="16.290000149 0.0 0.0 0.0 16.290000149 0.0 0.0 0.0 29.1751946751" Properties=species:S:1:pos:R:3:initial_magmoms:R:1 pbc="T T T"
Si       1.34778900       1.46297233      -1.22344954       0.00000000
Si       1.39274940      -1.33742530       1.36892639       0.00000000
Si      -1.35473831       1.45701019       1.29377109       0.00000000
Si      -1.21356054      -1.49372785      -1.39948157       0.00000000
Si      -2.67215950      -2.67085955       0.01681950       0.00000000
Si      -2.65868767       0.10277361       2.72341106       0.00000000
Si       2.78841145       0.27842868      -2.59370982       0.00000000
Si       0.04905245      -2.66574449       2.75232368       0.00000000
Si       0.03958307       2.74782981       2.72043519       0.00000000
Si      -0.04606486       2.73463491      -2.73413003       0.00000000
