10
Lattice="16.290000149 0.0 0.0 0.0 16.290000149 0.0 0.0 0.0 29.1751946751" Properties=species:S:1:pos:R:3:initial_magmoms:R:1 pbc="T T T"
Si      -1.31173016      -1.33801174       1.36452385       0.00000000
Si      -1.46969429       1.29277441      -1.27125076       0.00000000
Si       1.23118611       1.36088942       1.44551420       0.00000000
Si       1.37909605      -1.39572721      -1.29794606       0.00000000
Si       2.60961497      -0.09146835       2.60368190       0.00000000
Si      -0.08654296       2.62972730      -2.65281293       0.00000000
Si       2.64077774       2.65541663       0.05639565       0.00000000
Si      -2.61561435       0.07405858       2.70322766       0.00000000
Si       2.71593980      -0.04557942      -2.66821743       0.00000000
Si      -2.58780732      -2.80051167       0.06721965       0.00000000
