10
Lattice="16.290000149 0.0 0.0 0.0 16.290000149 0.0 0.0 0.0 29.1751946751" Properties=species:S:1:pos:R:3:initial_magmoms:R:1 pbc="T T T"
Si      -1.33986880       1.21280810       1.48775988       0.00000000
Si      -1.54271188      -1.31173597      -1.18859743       0.00000000
Si       1.38269521      -1.31268079       1.43571133       0.00000000
Si       0.78089374       1.49687182      -1.70899538       0.00000000
H        1.18392463      -2.09354195      -2.24468113       0.00000000
Si      -1.28772451       2.21452289      -2.55417159       0.00000000
Si      -0.17637183      -2.66219327      -2.51653559       0.00000000
Si      -2.58268015       0.23192073      -2.66489146       0.00000000
H       -0.63288280       3.73241370       0.05794194       0.00000000
Si       0.07486884       2.64720322       2.76359114       0.00000000
