10
Lattice="16.290000149 0.0 0.0 0.0 16.290000149 0.0 0.0 0.0 29.1751946751" Properties=species:S:1:pos:R:3:initial_magmoms:R:1 pbc="T T T"
Si       1.31391883       1.36008469      -1.38331268       0.00000000
Si      -1.38368890       1.47947410       1.21260862       0.00000000
Si       1.59646888      -1.30070764       1.21613881       0.00000000
Si      -1.50469102      -1.33981993      -1.30092193       0.00000000
Si      -2.23347305      -0.00783549       2.84478571       0.00000000
Si      -1.69326407      -2.39713868       2.11782738       0.00000000
Si       2.37213353      -0.10510308      -2.86185320       0.00000000
Si       3.46931391       0.16281855       1.37327641       0.00000000
Si       3.12807099       2.11405106       0.00175051       0.00000000
H        2.07549263       1.00149292       3.00244846       0.00000000
