10
Lattice="16.290000149 0.0 0.0 0.0 16.290000149 0.0 0.0 0.0 29.1751946751" Properties=species:S:1:pos:R:3:initial_magmoms:R:1 pbc="T T T"
Si      -1.41503086      -1.32641326       1.23895382       0.00000000
Si       1.36230013      -1.36972837      -1.26214810       0.00000000
Si       1.23004162       1.13780764       1.62549597       0.00000000
Si      -1.39504303       1.45062451      -1.19361556       0.00000000
Si      -0.37097217       1.06367185       3.41688210       0.00000000
Si       2.69995349       0.07781733      -2.51828610       0.00000000
Si      -2.49787604       0.09365121       2.73718759       0.00000000
Si      -0.05774805      -2.67972131      -2.57605299       0.00000000
Si       2.52780077       2.72777681       0.34940213       0.00000000
Si      -0.11999214      -2.62042571       2.66527073       0.00000000
