10
Lattice="16.290000149 0.0 0.0 0.0 16.290000149 0.0 0.0 0.0 29.1751946751" Properties=species:S:1:pos:R:3:initial_magmoms:R:1 pbc="T T T"
Si       0.89920801      -0.75961900      -0.96616575       0.00000000
Si      -1.07435809       1.71600491       0.79451728       0.00000000
Si      -1.90690742      -0.28199619       1.88783057       0.00000000
Si      -1.31253418       2.22710366      -1.50911612       0.00000000
Si       2.30657491      -1.91707238       0.49469460       0.00000000
Si      -0.69038650      -1.87714559      -2.31044202       0.00000000
Si       2.04978701       0.85967218      -2.17445643       0.00000000
Si       0.86364694       2.56259621       1.86983531       0.00000000
Si      -0.48176046      -1.65091007       3.22289040       0.00000000
Si      -3.21628134      -1.72898804       0.51902671       0.00000000
