10
Lattice="16.290000149 0.0 0.0 0.0 16.290000149 0.0 0.0 0.0 29.1751946751" Properties=species:S:1:pos:R:3:initial_magmoms:R:1 pbc="T T T"
Si       1.37013888       1.36917451       1.32472889       0.00000000
Si       1.37994057      -1.34798122      -1.34092112       0.00000000
Si      -1.32561505       1.38331423      -1.35968077       0.00000000
Si      -1.35202114      -1.35118058       1.37286796       0.00000000
Si      -2.68385897      -2.70606224      -0.01035719       0.00000000
Si      -2.69329088       0.03466512      -2.69914314       0.00000000
Si       0.00441459       2.72031599       2.67431504       0.00000000
Si       2.69865029       0.00843822       2.69855963       0.00000000
Si       2.70428663       0.03642444      -2.70229406       0.00000000
Si      -2.69107544       2.73075789      -0.01012379       0.00000000
