10
Lattice="16.290000149 0.0 0.0 0.0 16.290000149 0.0 0.0 0.0 29.1751946751" Properties=species:S:1:pos:R:3:initial_magmoms:R:1 pbc="T T T"
Si      -1.24641307       0.01150074      -0.86842884       0.00000000
Si       2.33836436      -0.15641658      -0.95207413       0.00000000
Si       2.20330397       0.27183123       1.40297676       0.00000000
Si      -0.70698601      -2.51960560       1.42981794       0.00000000
Si       1.47810574       1.92088424      -1.74167160       0.00000000
Si       0.70775164      -1.08521049       2.70564920       0.00000000
H        1.31613427       2.71156826      -0.46481920       0.00000000
Si      -2.64468315      -1.43352164       0.51228724       0.00000000
Si      -0.65484172      -1.51789081      -2.61211353       0.00000000
Si      -2.05102668       2.26856171      -0.63712790       0.00000000
