10
Lattice="16.290000149 0.0 0.0 0.0 16.290000149 0.0 0.0 0.0 29.1751946751" Properties=species:S:1:pos:R:3:initial_magmoms:R:1 pbc="T T T"
Si      -1.34615837       1.36107838      -1.35501274       0.00000000
Si       1.35684298       1.36287680       1.34984873       0.00000000
Si      -1.37598699      -1.34796493       1.35046141       0.00000000
Si       1.31758408      -1.37046142      -1.38923524       0.00000000
Si       0.01304829      -2.69741225       2.68023761       0.00000000
Si      -2.66084495      -0.02262681      -2.71857382       0.00000000
Si       2.70632288      -0.01125639      -2.69249119       0.00000000
Si      -0.02744865       2.71749782       2.68446801       0.00000000
Si      -2.69046970      -2.71425611      -0.04352939       0.00000000
Si       2.69982317      -2.71635752      -0.05356566       0.00000000
