10
Lattice="10.86 0.0 0.0 0.0 10.86 0.0 0.0 0.0 10.86" Properties=species:S:1:pos:R:3:initial_magmoms:R:1 pbc="T T T"
Si      -1.48970964       1.36931568       0.99834894       0.00000000
Si      -1.41768612      -1.22598540      -1.29916008       0.00000000
Si       1.08672762       1.48151034      -1.41686076       0.00000000
Si       2.47942488      -2.88260238      -0.04284270       0.00000000
Si       2.48923146       0.20471100      -2.91233706       0.00000000
Si       2.48923146       2.91971100      -0.19733706       0.00000000
Si      -0.22576854      -2.51028900      -2.91233706       0.00000000
Si      -0.22576854       2.91971100       2.51766294       0.00000000
Si      -2.94076854      -2.51028900      -0.19733706       0.00000000
Si      -2.94076854       0.20471100       2.51766294       0.00000000
