10
Lattice="10.86 0.0 0.0 0.0 10.86 0.0 0.0 0.0 10.86" Properties=species:S:1:pos:R:3:initial_magmoms:R:1 pbc="T T T"
Si       1.30035468       0.79153110       1.59040356       0.00000000
Si      -1.40483874       1.16384448      -1.27909080       0.00000000
Si       1.31016126      -1.55115552      -1.27909080       0.00000000
Si      -1.40483874      -1.55115552       1.43590920       0.00000000
Si      -2.59675632       2.44814808       0.33408618       0.00000000
Si      -0.04733874       2.52134448      -2.63659080       0.00000000
Si       2.63319162       2.58787284       0.03655476       0.00000000
Si       2.50919214      -0.36661188       2.71602084       0.00000000
Si       2.66766126      -0.19365552      -2.63659080       0.00000000
Si      -2.76233874      -0.19365552      -2.63659080       0.00000000
