10
Lattice="16.28999089631971 0.0 0.0 0.0 16.28999089631971 0.0 0.0 0.0 34.395419527814205" Properties=species:S:1:pos:R:3:initial_magmoms:R:1 pbc="T T T"
Si       1.77502356       0.93662450       1.42776296       0.00000000
Si      -0.99756702      -1.67540599       1.50790777       0.00000000
Si       0.48418767      -1.51252228      -1.93577529       0.00000000
Si      -1.78372242       1.97020545       0.06122388       0.00000000
Si      -2.30151636      -0.33918616       2.97955445       0.00000000
Si       0.42376806       2.37357843       2.95844253       0.00000000
Si      -2.97256662      -2.47087927       0.28547331       0.00000000
Si       3.17164671       2.30094132       0.06132707       0.00000000
Si      -3.54242340       1.09358354       1.56914197       0.00000000
Si      -0.20209374      -0.40481857      -4.00703422       0.00000000
