10
Lattice="16.28999089631971 0.0 0.0 0.0 16.28999089631971 0.0 0.0 0.0 34.395419527814205" Properties=species:S:1:pos:R:3:initial_magmoms:R:1 pbc="T T T"
Si      -0.32534388       0.66787371       2.18328487       0.00000000
Si      -0.40588164       1.59777207      -1.62594118       0.00000000
Si       2.29462569       0.25969518      -0.35633675       0.00000000
Si      -1.22215725      -2.15888112      -0.31045323       0.00000000
Si      -1.69363872       0.27890109      -3.00612695       0.00000000
Si      -2.97281912      -1.15201251      -1.58838136       0.00000000
Si       1.77183072       0.09594810       3.09899464       0.00000000
Si      -2.05905600      -0.82805328       2.85729789       0.00000000
Si       2.87487549      -1.65855006      -1.53431173       0.00000000
Si       3.39525954       1.08949149       1.57276583       0.00000000
