10
Lattice="16.28999089631971 0.0 0.0 0.0 16.28999089631971 0.0 0.0 0.0 34.395419527814205" Properties=species:S:1:pos:R:3:initial_magmoms:R:1 pbc="T T T"
Si       1.35169533       1.35106395       1.33557489       0.00000000
Si      -1.35483930       1.35690880      -1.35820709       0.00000000
Si       1.35910728      -1.35834165      -1.35655610       0.00000000
Si      -1.35062019      -1.36104579       1.38816551       0.00000000
Si       0.02590110       2.69562752       2.69474504       0.00000000
Si      -2.71381626       2.71287863       0.00000000       0.00000000
Si      -2.71282257      -0.00084457      -2.71493517       0.00000000
Si       0.00213399       2.71366055      -2.71486638       0.00000000
Si      -2.71533123      -2.71445157       0.00244208       0.00000000
Si       0.00197109      -2.71567332      -2.71469440       0.00000000
