10
Lattice="16.28999089631971 0.0 0.0 0.0 16.28999089631971 0.0 0.0 0.0 34.395419527814205" Properties=species:S:1:pos:R:3:initial_magmoms:R:1 pbc="T T T"
Si       0.11950344      -2.29822578      -0.62995246       0.00000000
Si       1.17183744      -0.33949989       2.09365036       0.00000000
Si       0.98277570       1.20506904      -1.88146490       0.00000000
Si      -2.23347303       1.04417271       0.14239712       0.00000000
Si      -1.50392538      -3.29176917       0.89627634       0.00000000
Si       2.44605753      -2.76408720      -1.01889608       0.00000000
Si      -0.81107910       1.11154815      -3.60484835       0.00000000
Si       1.20081735       1.61929116       3.35513747       0.00000000
Si      -2.31159987       2.36340470      -2.16835725       0.00000000
Si       3.44122992       0.84491343      -1.80613888       0.00000000
