10
Lattice="16.28999089631971 0.0 0.0 0.0 16.28999089631971 0.0 0.0 0.0 34.395419527814205" Properties=species:S:1:pos:R:3:initial_magmoms:R:1 pbc="T T T"
Si      -0.01062108      -1.20044268      -2.02850540       0.00000000
Si      -0.33705639      -1.19651679       2.00748978       0.00000000
Si       1.74723282       1.57460769      -0.37845301       0.00000000
Si      -2.16237533       1.01230947       0.16097065       0.00000000
Si      -2.07368442      -2.47801037       1.02295474       0.00000000
Si      -0.00619020       0.67297248      -3.58730668       0.00000000
Si       0.56523042       3.42422316      -1.22348015       0.00000000
Si      -1.94600340       2.13618915       2.29173369       0.00000000
Si      -3.62350592      -0.85017510       0.32912995       0.00000000
Si       1.63483182      -2.98128340      -1.65524609       0.00000000
