10
Lattice="16.28999089631971 0.0 0.0 0.0 16.28999089631971 0.0 0.0 0.0 34.395419527814205" Properties=species:S:1:pos:R:3:initial_magmoms:R:1 pbc="T T T"
Si      -0.42771024      -1.97011260       1.20721111       0.00000000
Si      -1.09305900       0.34458237      -2.06059634       0.00000000
Si      -0.52914807       1.51713657       1.74006525       0.00000000
Si       2.33346105       0.00904095      -0.51479653       0.00000000
Si      -0.17143596      -1.38497580      -3.38650611       0.00000000
Si      -0.43419366       2.56925133      -2.58701853       0.00000000
Si       1.63545084      -3.09207006       1.15558356       0.00000000
Si       3.31437969       0.87649974       1.47418850       0.00000000
Si       0.15713334       0.40943286       3.81132417       0.00000000
Si       0.73596591       3.47513660       1.55009924       0.00000000
