10
Lattice="16.28999089631971 0.0 0.0 0.0 16.28999089631971 0.0 0.0 0.0 34.395419527814205" Properties=species:S:1:pos:R:3:initial_magmoms:R:1 pbc="T T T"
Si      -0.82911213      -1.98886239       0.75859140       0.00000000
Si       1.13792166      -0.97039530      -1.78615513       0.00000000
Si       1.37458278       0.24822702       1.91297112       0.00000000
Si      -1.56367710       1.77223797      -0.46856906       0.00000000
Si      -1.92753054      -1.09125081       2.60951315       0.00000000
Si      -0.38713185       0.49932108       3.50093973       0.00000000
Si      -0.02050911       3.58181262      -0.25775942       0.00000000
Si       1.00424592      -2.85872721       2.00367189       0.00000000
Si       1.78818588       0.89842608      -3.06631897       0.00000000
Si       2.57461821       2.15482491       1.56485488       0.00000000
