10
Lattice="16.28999089631971 0.0 0.0 0.0 16.28999089631971 0.0 0.0 0.0 34.395419527814205" Properties=species:S:1:pos:R:3:initial_magmoms:R:1 pbc="T T T"
Si       1.21645575      -0.31802967      -1.94887995       0.00000000
Si       1.27446444       1.44878373       1.36602314       0.00000000
Si      -1.39662315      -1.36431682       1.36643589       0.00000000
Si       0.86653026       2.04708285      -2.08931653       0.00000000
Si      -2.58196500       0.89309925      -2.56861697       0.00000000
Si       1.93831452       3.39721434       0.00058472       0.00000000
Si      -0.04116483      -2.64794611       2.88720270       0.00000000
Si      -3.17164671      -2.30094132      -0.06132707       0.00000000
Si       2.65645917       0.08014680       2.89690565       0.00000000
Si      -2.74787865       0.07263711       2.89711546       0.00000000
