10
Lattice="16.28999089631971 0.0 0.0 0.0 16.28999089631971 0.0 0.0 0.0 34.395419527814205" Properties=species:S:1:pos:R:3:initial_magmoms:R:1 pbc="T T T"
Si       1.35304740      -1.35700587       1.35872302       0.00000000
Si       1.35635427       1.35738054      -1.35610896       0.00000000
Si      -1.35830907      -1.35775521      -1.35583380       0.00000000
Si      -1.35769005       1.35584928       1.36109630       0.00000000
Si       0.00521280      -2.71440270       2.69453867       0.00000000
Si       2.71371852      -0.00013032      -2.71345616       0.00000000
Si      -0.00117288       2.71472850      -2.71335298       0.00000000
Si       2.71437012      -2.71401174       0.00130703       0.00000000
Si      -0.00135207      -2.71538010      -2.71338737       0.00000000
Si      -2.71596654      -0.00047241      -2.71338737       0.00000000
