10
Lattice="16.28999089631971 0.0 0.0 0.0 16.28999089631971 0.0 0.0 0.0 34.395419527814205" Properties=species:S:1:pos:R:3:initial_magmoms:R:1 pbc="T T T"
Si       1.82672802       0.85499694      -1.36639320       0.00000000
Si      -0.93087576      -1.77790689      -1.44271668       0.00000000
Si       0.24900894      -0.62055126       2.39581429       0.00000000
Si      -1.79377335       1.74195486      -0.14507996       0.00000000
Si      -2.09862441      -0.21968694       2.71768680       0.00000000
Si       0.44072595       2.11401846      -2.89465133       0.00000000
Si      -2.28384171      -0.60942519      -2.94318330       0.00000000
Si       2.98408365       2.39244714       0.07704578       0.00000000
Si      -2.86207155      -2.54669715      -0.24290059       0.00000000
Si      -0.80205444       3.53046654      -1.41932778       0.00000000
