10
Lattice="16.28999089631971 0.0 0.0 0.0 16.28999089631971 0.0 0.0 0.0 34.395419527814205" Properties=species:S:1:pos:R:3:initial_magmoms:R:1 pbc="T T T"
Si      -0.15701931       2.00599947      -1.25859789       0.00000000
Si       0.53330202      -1.33910316      -1.91603231       0.00000000
Si       1.06896609      -0.05201397       2.15735071       0.00000000
Si      -2.14682652      -1.11785238       0.51937113       0.00000000
Si      -0.76033575      -2.90276397       1.50944383       0.00000000
Si       0.18904545      -3.34238220      -0.68515714       0.00000000
Si      -1.92371868       2.86273944       0.05912576       0.00000000
Si      -3.33985725       1.05218739      -0.07769930       0.00000000
Si      -0.72449775       0.79195464       3.50974497       0.00000000
Si      -0.94045428       1.44976113      -3.44322419       0.00000000
