10
Lattice="16.28999089631971 0.0 0.0 0.0 16.28999089631971 0.0 0.0 0.0 34.395419527814205" Properties=species:S:1:pos:R:3:initial_magmoms:R:1 pbc="T T T"
Si      -0.86371209       1.86996168      -1.13494629       0.00000000
Si       0.73744830       1.22839632       1.87836931       0.00000000
Si      -1.85420925      -1.30453578       0.75494549       0.00000000
Si       1.79346384      -0.84396861      -1.35239426       0.00000000
Si      -1.36137159       1.37956752       3.02844959       0.00000000
Si       3.33663183       0.96560604      -1.14158461       0.00000000
Si       0.72449775      -0.79195464      -3.50974497       0.00000000
Si      -0.82111374      -3.14395371       1.78171812       0.00000000
Si       0.60505947       3.62581191      -0.72505585       0.00000000
Si      -3.11068953      -1.80256995      -1.16996085       0.00000000
