10
Lattice="16.28999089631971 0.0 0.0 0.0 16.28999089631971 0.0 0.0 0.0 34.395419527814205" Properties=species:S:1:pos:R:3:initial_magmoms:R:1 pbc="T T T"
Si      -0.11534949      -1.80535554       1.48093001       0.00000000
Si      -1.75272255       1.30087053       0.90074775       0.00000000
Si       2.20799547       0.85033800      -0.07429415       0.00000000
Si      -0.57370122      -0.82430658      -2.15556215       0.00000000
Si       2.36061648       1.54639341      -2.35051549       0.00000000
Si      -0.42707493      -3.68268030       0.13455496       0.00000000
Si       0.99131166       0.07986987      -3.70349447       0.00000000
Si      -1.87005942       0.88045821       3.26949283       0.00000000
Si      -0.30623571      -3.17063673      -2.19439460       0.00000000
Si      -2.53879650       0.17464509      -2.93313983       0.00000000
