10
Lattice="16.28999089631971 0.0 0.0 0.0 16.28999089631971 0.0 0.0 0.0 34.395419527814205" Properties=species:S:1:pos:R:3:initial_magmoms:R:1 pbc="T T T"
Si      -1.58737905      -1.66848696       0.36018903       0.00000000
Si      -0.80743014       2.17377018      -0.37477270       0.00000000
Si       0.94727979      -0.51204357      -2.16333552       0.00000000
Si      -0.51559479      -0.31835547       2.45009029       0.00000000
Si       2.82924720      -1.02951171      -0.85142469       0.00000000
Si      -2.28530781       1.49444460       2.50371278       0.00000000
Si      -0.69009327       2.59418250      -2.74351778       0.00000000
Si      -3.70143009      -0.95068440      -0.37865939       0.00000000
Si       0.43614846       3.90733569       0.64082142       0.00000000
Si       1.06262928       1.29331197      -3.64426553       0.00000000
