10
Lattice="16.28999089631971 0.0 0.0 0.0 16.28999089631971 0.0 0.0 0.0 34.395419527814205" Properties=species:S:1:pos:R:3:initial_magmoms:R:1 pbc="T T T"
Si       1.34578206       1.36303317      -1.37825963       0.00000000
Si      -1.36783872      -1.35211887      -1.37798446       0.00000000
Si      -1.22746779       1.33154460       1.60182998       0.00000000
Si       1.47685140      -1.28247912       1.47931343       0.00000000
Si      -2.22140214      -0.48065274       2.76549646       0.00000000
Si       0.75429216       1.99466163       3.04282688       0.00000000
Si       2.52721431       0.41041026       2.77963299       0.00000000
Si       2.71963179      -2.69892720       0.00398987       0.00000000
Si      -2.71632492      -2.71091664      -0.01062819       0.00000000
Si       2.71306692       2.71414206      -0.03353555       0.00000000
