10
Lattice="16.28999089631971 0.0 0.0 0.0 16.28999089631971 0.0 0.0 0.0 34.395419527814205" Properties=species:S:1:pos:R:3:initial_magmoms:R:1 pbc="T T T"
Si      -0.99393435      -1.81219734       1.16366648       0.00000000
Si       1.22746779      -1.33154460      -1.60182998       0.00000000
Si       1.98175995       0.66311703       1.44099691       0.00000000
Si      -1.48530591       1.38764736      -1.58618005       0.00000000
Si      -1.57418415       0.10604790       2.34164147       0.00000000
Si       2.70852201       2.55029724      -0.06180860       0.00000000
Si       2.70431919      -2.61402372      -0.12251655       0.00000000
Si      -2.80297143      -2.65877235      -0.23860116       0.00000000
Si       2.57324985       0.03148857      -2.98008960       0.00000000
Si      -2.76879501       2.81551473      -0.11680691       0.00000000
