10
Lattice="16.28999089631971 0.0 0.0 0.0 16.28999089631971 0.0 0.0 0.0 34.395419527814205" Properties=species:S:1:pos:R:3:initial_magmoms:R:1 pbc="T T T"
Si      -1.89348444       0.62288073       1.20951560       0.00000000
Si       0.83808792      -2.03732514       0.79298684       0.00000000
Si       1.36526490       1.75003470       0.76371632       0.00000000
Si      -0.01296684      -0.35046306      -2.35196010       0.00000000
Si       0.31522779       3.54812490      -0.55049900       0.00000000
Si      -3.36225600      -1.13296950       0.79962516       0.00000000
Si      -1.12532949       0.53830305       3.42530416       0.00000000
Si       2.48345937      -0.80022996      -2.57030235       0.00000000
Si       2.50820388      -2.57903280      -0.87213074       0.00000000
Si       0.69369336       2.07036126       3.05802967       0.00000000
