10
Lattice="16.28999089631971 0.0 0.0 0.0 16.28999089631971 0.0 0.0 0.0 34.395419527814205" Properties=species:S:1:pos:R:3:initial_magmoms:R:1 pbc="T T T"
Si      -1.69824879       1.27179288       0.95058674       0.00000000
Si      -0.76815495       0.08457768      -2.21578856       0.00000000
Si       1.81902285       1.53205821      -0.36727449       0.00000000
Si      -0.63576612      -2.31283791       0.38763659       0.00000000
Si      -3.53470194      -0.15876234       0.66706514       0.00000000
Si       1.12532949      -0.53830305      -3.42530416       0.00000000
Si       1.32932916      -3.31178958       1.16521428       0.00000000
Si       2.89434204      -2.40761313      -0.38271805       0.00000000
Si      -2.73458601      -2.16166671       1.53771688       0.00000000
Si      -1.99837575       2.06237916      -2.50801221       0.00000000
