10
Lattice="16.28999089631971 0.0 0.0 0.0 16.28999089631971 0.0 0.0 0.0 34.395419527814205" Properties=species:S:1:pos:R:3:initial_magmoms:R:1 pbc="T T T"
Si      -1.35702605      -1.35699935       1.35724401       0.00000000
Si       1.35788068       1.35697329       1.35700324       0.00000000
Si       1.35741316      -1.35738868      -1.35734720       0.00000000
Si      -1.35784055       1.35790182      -1.35741599       0.00000000
Si      -0.00062441      -2.71484897      -2.71311221       0.00000000
Si       2.71346118      -0.00094482       2.71469440       0.00000000
Si       2.71357521      -0.00047241      -2.71462561       0.00000000
Si       2.71445487      -2.71466802      -0.00024077       0.00000000
Si       2.71452003       2.71497285       0.00013758       0.00000000
Si      -2.71496045      -2.71542365      -0.00027516       0.00000000
