10
Lattice="16.28999089631971 0.0 0.0 0.0 16.28999089631971 0.0 0.0 0.0 34.395419527814205" Properties=species:S:1:pos:R:3:initial_magmoms:R:1 pbc="T T T"
Si       1.99575306       0.98433858      -0.65134642       0.00000000
Si      -0.02897991      -1.95879105      -1.26148711       0.00000000
Si      -1.76668308       1.59549540       0.03745663       0.00000000
Si       0.24720075      -0.83782728       2.21668284       0.00000000
Si       2.07021465       2.59844138       1.05920754       0.00000000
Si       3.53971926      -0.73884924      -0.37714599       0.00000000
Si      -0.49365216       3.50879174      -0.81585981       0.00000000
Si      -1.39196421      -2.49957018       2.26280712       0.00000000
Si      -1.08297549      -3.48286716       0.16716183       0.00000000
Si      -2.01460059       1.84898898       2.48104618       0.00000000
