10
Lattice="16.28999089631971 0.0 0.0 0.0 16.28999089631971 0.0 0.0 0.0 34.395419527814205" Properties=species:S:1:pos:R:3:initial_magmoms:R:1 pbc="T T T"
Si      -0.33383097      -0.97397910      -2.11036654       0.00000000
Si      -1.45823193      -0.76711239       1.70075126       0.00000000
Si       1.99163169      -1.05930612       0.89672348       0.00000000
Si      -0.76022172       2.33399862       0.03037117       0.00000000
Si       1.76485860      -0.49606308       3.15973698       0.00000000
Si      -0.94294665       0.79990416      -3.47332020       0.00000000
Si       3.30856416       1.78347807      -0.30801115       0.00000000
Si       0.22069692       3.20145741       2.01935621       0.00000000
Si      -0.48751083      -0.56892825       3.80079917       0.00000000
Si      -3.09368277       2.32495767       0.54516770       0.00000000
