10
Lattice="16.28999089631971 0.0 0.0 0.0 16.28999089631971 0.0 0.0 0.0 34.395419527814205" Properties=species:S:1:pos:R:3:initial_magmoms:R:1 pbc="T T T"
Si      -1.35679410      -1.35683918       1.35731280       0.00000000
Si       1.35705474      -1.35719756      -1.35707204       0.00000000
Si      -1.35812988       1.35781505      -1.35745039       0.00000000
Si       1.35793440       1.35842430       1.35751918       0.00000000
Si       2.71433603       0.00057469      -2.71283705       0.00000000
Si       2.71425033      -2.71392650       0.00051593       0.00000000
Si      -0.00122175      -2.71436633      -2.71424726       0.00000000
Si      -0.00058644      -2.71397537       2.71514154       0.00000000
Si      -2.71487511      -2.71492019       0.00041275       0.00000000
Si       2.71496045       2.71542365       0.00027516       0.00000000
