10
Lattice="16.28999089631971 0.0 0.0 0.0 16.28999089631971 0.0 0.0 0.0 34.395419527814205" Properties=species:S:1:pos:R:3:initial_magmoms:R:1 pbc="T T T"
Si      -1.35580041       1.35878148      -1.36405431       0.00000000
Si       1.35974259      -1.35727628      -1.36398552       0.00000000
Si      -1.35609363      -1.35284377       1.39249934       0.00000000
Si       1.36075257       1.35154872       1.39769305       0.00000000
Si       2.71502142      -2.71531422      -0.00340515       0.00000000
Si      -2.71440270      -2.71729322      -0.00041275       0.00000000
Si       2.71841004       2.71376739      -0.00271724       0.00000000
Si      -2.71712313       2.71578735      -0.00663832       0.00000000
Si      -2.71427238       0.00053757      -2.72129832       0.00000000
Si       0.00136836       2.71511946      -2.72143590       0.00000000
