10
Lattice="16.28999089631971 0.0 0.0 0.0 16.28999089631971 0.0 0.0 0.0 34.395419527814205" Properties=species:S:1:pos:R:3:initial_magmoms:R:1 pbc="T T T"
Si       1.79491432      -1.56678264      -0.10827684       0.00000000
Si      -0.77851539      -0.31119764       2.29152732       0.00000000
Si       0.81057429       1.94218828      -1.29154873       0.00000000
Si      -1.88441091      -0.83283669      -1.38709925       0.00000000
Si       2.75114384      -0.40381281       2.17423887       0.00000000
Si       2.13335862       0.60158807      -2.87404847       0.00000000
Si      -0.58411053      -2.13297417      -2.88199381       0.00000000
Si       0.74083662      -3.39246810      -1.31717333       0.00000000
Si       3.49344656      -0.72301161      -1.46142780       0.00000000
Si      -2.85643521      -2.68220781      -0.07013230       0.00000000
