10
Lattice="16.28999089631971 0.0 0.0 0.0 16.28999089631971 0.0 0.0 0.0 34.395419527814205" Properties=species:S:1:pos:R:3:initial_magmoms:R:1 pbc="T T T"
Si      -1.15957107      -1.97806931      -0.54107465       0.00000000
Si      -0.85296069       0.95126432       1.98764361       0.00000000
Si       2.44296243      -0.13562077      -0.07143933       0.00000000
Si      -0.25236468       3.46789665       0.05699324       0.00000000
Si       0.36504261      -2.50663094      -2.43309894       0.00000000
Si      -3.60919611       0.75737911      -0.36228716       0.00000000
Si      -2.94425460       1.86548193       1.60974093       0.00000000
Si       2.88030006      -2.26327463       1.29141114       0.00000000
Si       3.22147782       0.17557688      -2.36296664       0.00000000
Si       0.63726480       2.41321689       3.13466271       0.00000000
