10
Lattice="16.28999089631971 0.0 0.0 0.0 16.28999089631971 0.0 0.0 0.0 34.395419527814205" Properties=species:S:1:pos:R:3:initial_magmoms:R:1 pbc="T T T"
Si       2.00235607      -0.97927891      -0.38546968       0.00000000
Si      -0.18246429       2.37928645      -0.03470500       0.00000000
Si      -1.45806903      -1.00874752      -1.60750523       0.00000000
Si       0.82571796      -0.86757838       2.14848808       0.00000000
Si       2.97936674      -0.09219977      -2.24309854       0.00000000
Si       0.55978828       2.84128714      -2.36317301       0.00000000
Si      -0.48671262      -0.65053042      -3.68175655       0.00000000
Si      -2.52928314       2.81735713      -0.17493520       0.00000000
Si       1.96982657       0.94285868       3.28499283       0.00000000
Si      -0.94700286      -1.96858690       3.30932416       0.00000000
