10
Lattice="16.28999089631971 0.0 0.0 0.0 16.28999089631971 0.0 0.0 0.0 34.395419527814205" Properties=species:S:1:pos:R:3:initial_magmoms:R:1 pbc="T T T"
Si      -1.35887989      -1.34799750      -1.37688381       0.00000000
Si       1.35393358       1.36733373      -1.37784688       0.00000000
Si      -1.36425559       1.31875695       1.42080678       0.00000000
Si       1.34231881      -1.33594290       1.52891165       0.00000000
Si       2.70147496      -2.69522937      -0.00216691       0.00000000
Si      -2.71653736      -2.71021617       0.02352648       0.00000000
Si      -2.71523416       2.72300382       0.00013758       0.00000000
Si      -0.00264061      -2.70506853      -2.73839286       0.00000000
Si       2.71203088       2.73393441      -0.01485883       0.00000000
Si       2.71242184       0.01063737      -2.73763616       0.00000000
