10
Lattice="16.28999089631971 0.0 0.0 0.0 16.28999089631971 0.0 0.0 0.0 34.395419527814205" Properties=species:S:1:pos:R:3:initial_magmoms:R:1 pbc="T T T"
Si       1.35716877       1.35633798      -1.35738159       0.00000000
Si      -1.35847197      -1.35824391      -1.35724401       0.00000000
Si      -1.36132272       1.35700587       1.35741599       0.00000000
Si       1.35580041      -1.35878148       1.36405431       0.00000000
Si      -2.70915732      -0.00039096       2.69323164       0.00000000
Si      -2.71437012       2.71401174      -0.00130703       0.00000000
Si      -0.00065160       2.71388142      -2.71476319       0.00000000
Si       2.71472850      -0.00115659      -2.71459121       0.00000000
Si       2.71487511       2.71510317      -0.00003440       0.00000000
Si      -2.71572219      -0.00136836      -2.71469440       0.00000000
