10
Lattice="16.28999089631971 0.0 0.0 0.0 16.28999089631971 0.0 0.0 0.0 34.395419527814205" Properties=species:S:1:pos:R:3:initial_magmoms:R:1 pbc="T T T"
Si       1.35708055       1.35589815      -1.35724401       0.00000000
Si      -1.35770634      -1.35876519      -1.35734720       0.00000000
Si      -1.36102950       1.35508365       1.35865423       0.00000000
Si       1.35933534      -1.36011726       1.36137147       0.00000000
Si      -0.00065160       2.71365336      -2.71455682       0.00000000
Si      -2.71419093       2.71420722      -0.00085989       0.00000000
Si       2.71470636       2.71389771       0.00058472       0.00000000
Si       2.71458256      -0.00141723      -2.71452242       0.00000000
Si      -2.71487511      -2.71510317       0.00003440       0.00000000
Si      -2.71552671      -0.00122175      -2.71472879       0.00000000
