10
Lattice="16.28999089631971 0.0 0.0 0.0 16.28999089631971 0.0 0.0 0.0 34.395419527814205" Properties=species:S:1:pos:R:3:initial_magmoms:R:1 pbc="T T T"
Si       1.39896239       1.22189661      -1.52770781       0.00000000
Si       1.37315903      -1.40871033       1.39201780       0.00000000
Si      -1.26833663      -1.50679242      -1.47411971       0.00000000
Si      -1.85050883       1.52976132       1.69803402       0.00000000
Si       2.69367530      -2.73383830      -0.19399027       0.00000000
Si       0.05664359       2.55783951      -3.05661946       0.00000000
Si      -2.81767871       2.85633747      -0.08137961       0.00000000
Si       3.12778751       2.51147817      -0.20272672       0.00000000
Si      -2.07891092      -3.44898070      -0.18257099       0.00000000
Si      -2.65989377      -0.15237666      -3.03309298       0.00000000
