10
Lattice="16.28999089631971 0.0 0.0 0.0 16.28999089631971 0.0 0.0 0.0 34.395419527814205" Properties=species:S:1:pos:R:3:initial_magmoms:R:1 pbc="T T T"
Si       1.66420269      -1.59500277      -0.42698498       0.00000000
Si      -1.56501288      -0.90417645       1.54793233       0.00000000
Si       1.36930482       1.46652354       1.35297898       0.00000000
Si      -0.93092463      -0.16801506      -2.24959928       0.00000000
Si       0.46416726      -3.50160066      -0.07886874       0.00000000
Si      -3.53010816       0.09477522       0.77035464       0.00000000
Si       3.49112619       0.87648345       0.53364523       0.00000000
Si       3.26285442      -1.39287645       1.21691062       0.00000000
Si       2.62844037      -0.93112011      -2.53597570       0.00000000
Si      -2.89434204       2.40761313       0.38271805       0.00000000
