10
Lattice="16.28999089631971 0.0 0.0 0.0 16.28999089631971 0.0 0.0 0.0 34.395419527814205" Properties=species:S:1:pos:R:3:initial_magmoms:R:1 pbc="T T T"
Si      -1.35591444      -1.35697329       1.35634973       0.00000000
Si       1.35687555       1.35731538       1.35645292       0.00000000
Si      -1.35703845       1.35762489      -1.35731280       0.00000000
Si       1.35762489      -1.35752715      -1.35734720       0.00000000
Si       2.71301517      -0.00171045      -2.71510714       0.00000000
Si      -2.71386513       2.71430496       0.00020637       0.00000000
Si      -2.71433754       0.00037467      -2.71431605       0.00000000
Si      -0.00021177       2.71485882      -2.71445363       0.00000000
Si      -2.71461447      -2.71489140      -0.00017198       0.00000000
Si       0.00065160      -2.71523349      -2.71445363       0.00000000
