10
Lattice="16.28999089631971 0.0 0.0 0.0 16.28999089631971 0.0 0.0 0.0 34.395419527814205" Properties=species:S:1:pos:R:3:initial_magmoms:R:1 pbc="T T T"
Si       1.78767993      -1.03070088      -1.37426976       0.00000000
Si      -1.23649245       1.88462268      -1.07265615       0.00000000
Si      -2.04068088      -1.44399447       0.07917830       0.00000000
Si       0.91962330       0.68326776       2.35784172       0.00000000
Si      -0.14939559      -2.58463656       1.63471202       0.00000000
Si      -1.25827218       0.22804371       3.20906004       0.00000000
Si      -2.06035920       2.10276207       1.99311249       0.00000000
Si      -2.35473579       0.38320596      -2.70203688       0.00000000
Si       0.33984198      -2.45682522      -2.66444266       0.00000000
Si      -1.17022473      -3.47708421      -1.11000960       0.00000000
