10
Lattice="16.28999089631971 0.0 0.0 0.0 16.28999089631971 0.0 0.0 0.0 34.395419527814205" Properties=species:S:1:pos:R:3:initial_magmoms:R:1 pbc="T T T"
Si      -1.66426785      -1.00012455      -1.26434193       0.00000000
Si       0.97202430       1.84937112      -1.31696695       0.00000000
Si      -1.52461368       0.52856163       1.89202429       0.00000000
Si       2.05139970      -1.94075802       0.20867713       0.00000000
Si      -0.36504261       2.50663094       2.43309894       0.00000000
Si      -0.43225515      -2.16782433      -2.83789886       0.00000000
Si       2.27232468       0.54923364      -2.81186151       0.00000000
Si      -2.39102991      -2.88730476       0.23846358       0.00000000
Si      -1.08460449      -1.35760860       3.40931028       0.00000000
Si       0.93315636      -3.44217474      -1.42070360       0.00000000
