10
Lattice="16.28999089631971 0.0 0.0 0.0 16.28999089631971 0.0 0.0 0.0 34.395419527814205" Properties=species:S:1:pos:R:3:initial_magmoms:R:1 pbc="T T T"
Si       1.54587213       1.23049773      -1.45571815       0.00000000
Si      -1.11824334      -1.50141672      -1.62938072       0.00000000
Si       1.23649245      -1.88462268       1.07265615       0.00000000
Si      -2.05139970       1.94075802      -0.20867713       0.00000000
Si      -0.82386675       0.21813939       3.06576864       0.00000000
Si      -0.80418843      -3.32861715       1.15183445       0.00000000
Si      -2.66950746      -2.53079811      -0.23340745       0.00000000
Si       0.22092498       2.48999166      -3.02053864       0.00000000
Si      -2.48365485      -0.22706631      -3.04657599       0.00000000
Si       2.59994983       3.05618319      -0.24682167       0.00000000
