10
Lattice="16.28999089631971 0.0 0.0 0.0 16.28999089631971 0.0 0.0 0.0 34.395419527814205" Properties=species:S:1:pos:R:3:initial_magmoms:R:1 pbc="T T T"
Si      -0.39890952      -0.14796207      -2.29245599       0.00000000
Si       1.98573471      -0.23447826       1.20284289       0.00000000
Si      -0.03505608       2.31946372       0.38897802       0.00000000
Si      -1.69955199      -1.18846953       1.14302922       0.00000000
Si       0.86910408       0.30856518       3.17167220       0.00000000
Si      -0.51046344       2.17057149       2.66485541       0.00000000
Si       1.72136430       0.37884024      -3.08251922       0.00000000
Si      -1.94287572       1.57522575      -2.56665643       0.00000000
Si      -1.20420567      -3.42230094       0.39258954       0.00000000
Si      -3.69142803      -0.24694011       0.30137283       0.00000000
