10
Lattice="16.28999089631971 0.0 0.0 0.0 16.28999089631971 0.0 0.0 0.0 34.395419527814205" Properties=species:S:1:pos:R:3:initial_magmoms:R:1 pbc="T T T"
Si       0.77801040      -1.16955684      -1.86423278       0.00000000
Si      -2.35014201       0.36549873       0.18587295       0.00000000
Si       0.65503719       2.25357489      -0.53216623       0.00000000
Si       0.63009720      -1.55113380       1.74295446       0.00000000
Si      -0.52888743       0.22240737       3.04502819       0.00000000
Si       3.13790916      -0.23501583      -1.50277111       0.00000000
Si      -2.73292443       1.65752379      -1.75650627       0.00000000
Si      -0.27453537      -3.66806817       0.89754897       0.00000000
Si      -1.06354152      -1.45595133      -3.39101191       0.00000000
Si      -1.31411430       3.43222222      -1.13752595       0.00000000
