10
Lattice="16.28999089631971 0.0 0.0 0.0 16.28999089631971 0.0 0.0 0.0 34.395419527814205" Properties=species:S:1:pos:R:3:initial_magmoms:R:1 pbc="T T T"
Si      -1.75066186       1.00686861      -1.27792813       0.00000000
Si      -1.14878709      -0.66808548       2.01261470       0.00000000
Si       1.23689970      -1.78437402      -1.13501508       0.00000000
Si       1.22215725       2.15888112       0.31045323       0.00000000
Si       2.28799566      -0.34624395      -2.62612614       0.00000000
Si      -0.83689875       1.33082784       3.16775112       0.00000000
Si      -0.47148147       2.43778221      -2.69567372       0.00000000
Si       0.89681337       2.82675483       2.49373810       0.00000000
Si      -0.49192542      -3.07395558      -2.45999617       0.00000000
Si       0.81627561       3.75665319      -1.31548795       0.00000000
