10
Lattice="16.28999089631971 0.0 0.0 0.0 16.28999089631971 0.0 0.0 0.0 34.395419527814205" Properties=species:S:1:pos:R:3:initial_magmoms:R:1 pbc="T T T"
Si       1.18104129       1.62424332       1.12751688       0.00000000
Si      -2.31025757       0.42573915       0.15808144       0.00000000
Si       0.53851482      -1.87217712       1.34204123       0.00000000
Si       0.83680101       0.24193908      -2.22879004       0.00000000
Si      -1.23245253      -0.17767503      -3.16812947       0.00000000
Si       3.24420237       0.50228586       1.07588932       0.00000000
Si       0.20904957      -0.46555191       3.48890133       0.00000000
Si      -2.61817115       1.29850848      -2.00054190       0.00000000
Si       2.86102899      -1.81227879       1.46084307       0.00000000
Si      -3.19740772      -1.41473763       1.33316721       0.00000000
