10
Lattice="16.28999089631971 0.0 0.0 0.0 16.28999089631971 0.0 0.0 0.0 34.395419527814205" Properties=species:S:1:pos:R:3:initial_magmoms:R:1 pbc="T T T"
Si      -1.77272082      -1.10100852       1.16083608       0.00000000
Si       1.14410860       1.81043706       1.13650475       0.00000000
Si       1.71396538      -1.75402575      -0.14716391       0.00000000
Si      -0.82571796       0.86757838      -2.14848808       0.00000000
Si       1.17663810      -0.11170053      -2.53395776       0.00000000
Si      -0.34492907      -2.34849672       2.55259592       0.00000000
Si       2.38501564       0.37766736       2.54691723       0.00000000
Si       1.43946259      -2.37550554      -2.63184718       0.00000000
Si       1.02523884      -3.61291023       1.11710916       0.00000000
Si       3.68896498      -0.95855247       1.07527055       0.00000000
