10
Lattice="16.28999089631971 0.0 0.0 0.0 16.28999089631971 0.0 0.0 0.0 34.395419527814205" Properties=species:S:1:pos:R:3:initial_magmoms:R:1 pbc="T T T"
Si      -1.35558050       1.35791811      -1.35769115       0.00000000
Si       1.35897696      -1.35596983      -1.35820709       0.00000000
Si      -1.35513578      -1.34224550       1.38070170       0.00000000
Si       1.34853507       1.36775727       1.37853479       0.00000000
Si       2.71381626      -2.71287863       0.00000000       0.00000000
Si      -2.71181978       2.71498914       0.00381789       0.00000000
Si      -2.71346118       0.00094482      -2.71469440       0.00000000
Si       0.00099369      -2.71372320      -2.71493517       0.00000000
Si      -2.71520840      -2.71409247       0.00312998       0.00000000
Si       0.00105885       2.71591767      -2.71455682       0.00000000
