10
Lattice="16.28999089631971 0.0 0.0 0.0 16.28999089631971 0.0 0.0 0.0 34.395419527814205" Properties=species:S:1:pos:R:3:initial_magmoms:R:1 pbc="T T T"
Si       1.34871426       1.35686808       1.36164663       0.00000000
Si      -1.36640031      -1.35265644       1.35975488       0.00000000
Si      -1.24090704       1.43276970      -1.41041248       0.00000000
Si       1.30394934      -1.33621983      -1.47164668       0.00000000
Si      -0.67105026      -2.13169311      -2.69408114       0.00000000
Si      -2.38501564      -0.37766736      -2.54691723       0.00000000
Si       0.51779394       2.30939162      -2.91833057       0.00000000
Si       2.30151636       0.33918616      -2.97955445       0.00000000
Si       2.70648576       0.00279380       2.71995690       0.00000000
Si      -2.71553390       2.71289492      -0.00577499       0.00000000
