10
Lattice="16.28999089631971 0.0 0.0 0.0 16.28999089631971 0.0 0.0 0.0 34.395419527814205" Properties=species:S:1:pos:R:3:initial_magmoms:R:1 pbc="T T T"
Si      -1.30394934       1.33621983       1.47164668       0.00000000
Si       1.40835195      -1.39023747       1.43439986       0.00000000
Si      -1.97499960      -0.79547328      -1.22243446       0.00000000
Si       0.99756702       1.67540599      -1.50790777       0.00000000
Si       1.48175469       0.16288371      -3.44368306       0.00000000
Si      -2.66372614      -2.65435776       0.04183861       0.00000000
Si      -2.54485638       2.76898953       0.06123420       0.00000000
Si       2.77259058       2.61203049      -0.08014481       0.00000000
Si      -2.67034965      -0.01643661       2.83140156       0.00000000
Si       0.04476492       2.69308791       2.83329331       0.00000000
