10
Lattice="16.28999089631971 0.0 0.0 0.0 16.28999089631971 0.0 0.0 0.0 34.395419527814205" Properties=species:S:1:pos:R:3:initial_magmoms:R:1 pbc="T T T"
Si      -1.34852461      -1.34387613       1.35548641       0.00000000
Si      -1.42779175       1.24748820      -1.39175984       0.00000000
Si       1.37016791      -1.26441351      -1.43548676       0.00000000
Si       1.36354440       1.37350764       1.35407619       0.00000000
Si       2.05889445       0.59447097      -2.69975983       0.00000000
Si       0.34492907       2.34849672      -2.55259592       0.00000000
Si      -2.68897984       2.71806158      -0.00182640       0.00000000
Si       0.00476425      -2.70440064       2.71400305       0.00000000
Si      -2.69631034      -2.72445363      -0.02552486       0.00000000
Si      -2.70846268       0.01216863       2.71465656       0.00000000
