10
Lattice="16.28999089631971 0.0 0.0 0.0 16.28999089631971 0.0 0.0 0.0 34.395419527814205" Properties=species:S:1:pos:R:3:initial_magmoms:R:1 pbc="T T T"
Si      -2.05042230       1.04370030       0.13988625       0.00000000
Si       0.29714589      -1.81776852       1.42207942       0.00000000
Si       1.39230630       1.85859682      -0.63284168       0.00000000
Si      -0.33824556      -1.06235235      -2.13513126       0.00000000
Si       1.63892061       0.43842906      -2.58326943       0.00000000
Si      -2.83955551      -1.18047114      -2.07125893       0.00000000
Si      -2.12231007       2.42776616      -1.83241700       0.00000000
Si      -3.72641830      -0.53726049       0.11825152       0.00000000
Si      -0.25314660       3.63943754      -1.00610098       0.00000000
Si       1.87010829      -3.28364046       0.39812720       0.00000000
