10
Lattice="16.28999089631971 0.0 0.0 0.0 16.28999089631971 0.0 0.0 0.0 34.395419527814205" Properties=species:S:1:pos:R:3:initial_magmoms:R:1 pbc="T T T"
Si       1.67599600       1.58096079       0.02163473       0.00000000
Si      -0.20998594      -1.79758521       1.45214103       0.00000000
Si      -1.83036853       1.33876107      -0.65598981       0.00000000
Si       0.88686279      -0.64321065      -2.18951044       0.00000000
Si      -1.21007791       0.49122495      -2.81757116       0.00000000
Si       2.03502760      -2.61231327       1.44877028       0.00000000
Si      -1.67934394      -3.29295834       0.32042791       0.00000000
Si       1.41020836       2.89913034       1.92710764       0.00000000
Si       3.72641830       0.53726049      -0.11825152       0.00000000
Si       1.60410823       2.96502665      -1.95066852       0.00000000
