10
Lattice="10.86 0.0 0.0 0.0 10.86 0.0 0.0 0.0 10.86" Properties=species:S:1:pos:R:3:initial_magmoms:R:1 pbc="T T T"
Si       1.15625334      -1.48455114       1.36223496       0.00000000
Si       1.47441876       1.52301726      -1.10844762       0.00000000
Si      -1.58784060       1.29466404       1.37865528       0.00000000
Si      -0.09070272       2.49683346      -2.63636274       0.00000000
Si       2.47501572      -0.04355946       2.71049310       0.00000000
Si       2.47501572      -2.75855946      -0.00450690       0.00000000
Si      -0.23998428       2.67144054       2.71049310       0.00000000
Si      -0.23998428      -2.75855946       2.71049310       0.00000000
Si      -0.23998428      -2.75855946      -2.71950690       0.00000000
Si      -2.95498428       2.67144054      -0.00450690       0.00000000
