10
Lattice="10.86 0.0 0.0 0.0 10.86 0.0 0.0 0.0 10.86" Properties=species:S:1:pos:R:3:initial_magmoms:R:1 pbc="T T T"
Si       1.31876238      -1.27400832      -1.36674186       0.00000000
Si      -1.39623762      -1.27400832       1.34825814       0.00000000
Si      -1.15625334       1.48455114      -1.36223496       0.00000000
Si       1.31876238       1.44099168       1.34825814       0.00000000
Si       2.67626238      -2.63150832      -0.00924186       0.00000000
Si      -0.03873762      -2.63150832       2.70575814       0.00000000
Si      -0.03873762      -2.63150832      -2.72424186       0.00000000
Si       2.67626238       0.08349168       2.70575814       0.00000000
Si      -2.75373762      -2.63150832      -0.00924186       0.00000000
Si       2.88189648       2.51252616       0.15805644       0.00000000
