10
Lattice="10.86 0.0 0.0 0.0 10.86 0.0 0.0 0.0 10.86" Properties=species:S:1:pos:R:3:initial_magmoms:R:1 pbc="T T T"
Si       1.26187770      -1.26006408       1.39919154       0.00000000
Si      -1.35750000      -1.35750000      -1.35750000       0.00000000
Si       1.35750000       1.35750000      -1.35750000       0.00000000
Si      -1.47550476       1.39349004       1.25482956       0.00000000
Si       0.14928156       2.54039292       2.79814416       0.00000000
Si      -2.71500000       0.00000000       2.71500000       0.00000000
Si       2.71500000       2.71500000       0.00000000       0.00000000
Si       0.00000000      -2.71500000       2.71500000       0.00000000
Si       0.00000000       2.71500000      -2.71500000       0.00000000
Si      -2.71500000       0.00000000      -2.71500000       0.00000000
