10
Lattice="16.290000149 0.0 0.0 0.0 16.290000149 0.0 0.0 0.0 29.1751946751" Properties=species:S:1:pos:R:3:initial_magmoms:R:1 pbc="T T T"
Si      -1.36967950       1.38704464       1.31160005       0.00000000
Si      -1.36091548      -1.34594497      -1.36697457       0.00000000
Si       1.35275419       1.34695495      -1.37520198       0.00000000
Si       1.34775316      -1.33216363       1.40811160       0.00000000
Si       0.01298313       2.73557973       2.65409663       0.00000000
Si       2.67027311      -2.72830624       0.04285836       0.00000000
Si      -0.07644897      -2.61526015       2.78045440       0.00000000
Si      -2.69972543      -2.70888367      -0.00017505       0.00000000
Si      -0.01102833      -2.69556986      -2.74060109       0.00000000
Si       2.72587088       2.71326242      -0.04565918       0.00000000
