10
Lattice="16.290000149 0.0 0.0 0.0 16.290000149 0.0 0.0 0.0 29.1751946751" Properties=species:S:1:pos:R:3:initial_magmoms:R:1 pbc="T T T"
Si       1.32623407       1.38223909      -1.37612683       0.00000000
Si       1.34904007      -1.36226755       1.37620852       0.00000000
Si      -1.36332640       1.34765542       1.39061231       0.00000000
Si      -1.38950443      -1.37795482      -1.34164175       0.00000000
Si       2.52597629      -0.08905743      -2.80600312       0.00000000
Si      -2.64707615      -2.74732482       0.08396038       0.00000000
Si      -2.84179053       0.03798828      -2.55941438       0.00000000
Si       2.72090243       0.04372236       2.68876552       0.00000000
Si      -0.07299549       2.80587108      -2.60072645       0.00000000
Si       2.63376722       2.82769968      -0.00413704       0.00000000
