10
Lattice="16.290000149 0.0 0.0 0.0 16.290000149 0.0 0.0 0.0 29.1751946751" Properties=species:S:1:pos:R:3:initial_magmoms:R:1 pbc="T T T"
Si      -1.36767583      -1.35819505      -1.32890094       0.00000000
Si      -1.43814637       1.33452568       1.28064517       0.00000000
Si       1.35314515       1.35164647      -1.36183974       0.00000000
Si       1.36314721      -1.32615262       1.38054104       0.00000000
Si      -0.08845470       2.67832037       2.59279955       0.00000000
Si      -0.09528021      -2.62314614       2.68262998       0.00000000
Si       0.00306252      -2.71485884      -2.66203229       0.00000000
Si      -2.71096553       0.02464677      -2.67265206       0.00000000
Si       2.73095336      -0.01440036      -2.67454845       0.00000000
Si       2.72973161       2.69197139      -0.02885427       0.00000000
