10
Lattice="16.290000149 0.0 0.0 0.0 16.290000149 0.0 0.0 0.0 29.1751946751" Properties=species:S:1:pos:R:3:initial_magmoms:R:1 pbc="T T T"
Si      -1.51197265       1.31684940       1.20735708       0.00000000
Si       1.42420213       1.28309652      -1.37234281       0.00000000
Si      -1.22464963      -1.43612804      -1.42319517       0.00000000
Si       0.97186141      -0.85888211       1.98516777       0.00000000
Si      -0.06994926       2.64388169       2.42014075       0.00000000
Si      -0.75899998      -1.18265401       3.49370039       0.00000000
Si       1.11775465      -3.16817860       1.76798762       0.00000000
Si      -2.56042964      -2.81444124      -0.10222988       0.00000000
Si      -2.67488318      -0.12275981       2.71145507       0.00000000
Si       0.07644897       2.61526015      -2.78045440       0.00000000
