10
Lattice="16.290000149 0.0 0.0 0.0 16.290000149 0.0 0.0 0.0 29.1751946751" Properties=species:S:1:pos:R:3:initial_magmoms:R:1 pbc="T T T"
Si       1.31225725       1.35982405       1.34523322       0.00000000
Si      -1.37494117       1.26434836      -1.41740973       0.00000000
Si       1.28715436      -1.44906067      -1.32780104       0.00000000
Si      -1.42703659      -1.39082392       1.28131036       0.00000000
Si      -2.18517320      -0.59482936      -2.59798836       0.00000000
Si      -0.55258939      -2.33036597      -2.51266404       0.00000000
Si       2.62117505       2.64940562      -0.12516159       0.00000000
Si       2.62923860      -0.03142341       2.68700042       0.00000000
Si      -0.10682982       2.69034239       2.64723463       0.00000000
Si       2.53645076      -2.81918001       0.08575465       0.00000000
