10
Lattice="16.290000149 0.0 0.0 0.0 16.290000149 0.0 0.0 0.0 29.1751946751" Properties=species:S:1:pos:R:3:initial_magmoms:R:1 pbc="T T T"
Si      -1.33234282       1.36627489      -1.37196353       0.00000000
Si       1.37085075       1.37225658       1.32977620       0.00000000
Si       1.36966484      -1.33977106      -1.38048269       0.00000000
Si      -1.37917657      -1.32665761       1.38946865       0.00000000
Si      -2.63660168      -2.69470811      -0.06625687       0.00000000
Si       0.06406109      -2.67711491       2.67119330       0.00000000
Si      -0.02621061       2.70998813       2.67749514       0.00000000
Si      -2.70343955       2.70629030      -0.00641854       0.00000000
Si      -2.66426210       0.01128897      -2.75524703       0.00000000
Si       2.77948128       0.03409497       2.66042765       0.00000000
