10
Lattice="16.290000149 0.0 0.0 0.0 16.290000149 0.0 0.0 0.0 29.1751946751" Properties=species:S:1:pos:R:3:initial_magmoms:R:1 pbc="T T T"
H       -0.90052750       0.74456704       0.97637706       0.00000000
Si       1.15429312       1.63768258      -1.17914467       0.00000000
Si       1.40316930      -1.16932879       1.45910984       0.00000000
Si      -1.59423715      -1.12270681      -1.34459720       0.00000000
Si      -0.62415136       2.78555745      -2.19613360       0.00000000
Si      -1.98355187       2.45794925       1.76863794       0.00000000
Si       2.61698852       0.43062615      -2.52239981       0.00000000
Si      -0.05760144      -2.34652565       2.87465819       0.00000000
Si      -2.23878359       2.96737014      -0.52640804       0.00000000
Si       2.86307504      -2.44817525       0.11217862       0.00000000
