10
Lattice="16.290000149 0.0 0.0 0.0 16.290000149 0.0 0.0 0.0 29.1751946751" Properties=species:S:1:pos:R:3:initial_magmoms:R:1 pbc="T T T"
Si      -1.46388132      -1.38453598       1.21438830       0.00000000
Si       1.33880995      -1.33133284      -1.40866592       0.00000000
Si      -1.34384682       1.35309628      -1.38871009       0.00000000
Si       1.41206608       1.39328371       1.30065935       0.00000000
Si      -0.11174940       2.65556324       2.52073682       0.00000000
Si      -0.04836501      -2.60592761       2.59370398       0.00000000
Si       2.75978667       2.68276754      -0.07115830       0.00000000
Si      -2.81541702      -0.08623926       2.63157338       0.00000000
Si      -0.00658116       2.70075170      -2.76000259       0.00000000
Si       2.76060117      -2.70239699      -0.15687502       0.00000000
