10
Lattice="16.290000149 0.0 0.0 0.0 16.290000149 0.0 0.0 0.0 29.1751946751" Properties=species:S:1:pos:R:3:initial_magmoms:R:1 pbc="T T T"
Si       1.44337709      -1.20122461       1.38094949       0.00000000
Si      -1.43902440       1.23758389       1.37333476       0.00000000
Si      -1.35656084      -1.40887324      -1.31629726       0.00000000
Si       1.36940420       1.42340392      -1.29987162       0.00000000
H       -1.18622478      -1.45051048       3.09449620       0.00000000
Si      -0.03226560      -2.38684340       2.76998051       0.00000000
Si      -0.01853313       2.67784796       2.53935059       0.00000000
Si       2.57023785      -2.64844451      -0.07746014       0.00000000
Si       2.56370556       0.01695789      -2.77386081       0.00000000
Si      -2.73070739       2.65183283       0.01493770       0.00000000
