10
Lattice="16.290000149 0.0 0.0 0.0 16.290000149 0.0 0.0 0.0 29.1751946751" Properties=species:S:1:pos:R:3:initial_magmoms:R:1 pbc="T T T"
Si      -1.44337709       1.20122461      -1.38094949       0.00000000
Si       1.12686076      -1.44721990      -1.45840963       0.00000000
Si      -1.47564270      -1.18561879       1.38903102       0.00000000
Si       1.49804470       1.33346683       1.30847831       0.00000000
H        0.01927107      -2.70690932       0.77191730       0.00000000
H       -2.62960187      -0.24928587       1.71354671       0.00000000
H        2.03295944      -2.34242057      -0.64582211       0.00000000
Si      -0.20155617      -1.06932448       3.42204611       0.00000000
Si      -0.07397289       2.62462853      -2.68082111       0.00000000
Si       0.10314828       2.80222212       2.52283743       0.00000000
