10
Lattice="16.290000149 0.0 0.0 0.0 16.290000149 0.0 0.0 0.0 29.1751946751" Properties=species:S:1:pos:R:3:initial_magmoms:R:1 pbc="T T T"
Si       0.61470316       0.51805458      -2.18207116       0.00000000
Si      -2.29949642      -0.06108750       0.45457871       0.00000000
Si       0.76561372       2.04504662       0.88380417       0.00000000
Si       1.21474531      -1.87443167       0.95423309       0.00000000
Si       1.69256360       1.00193275       2.71906979       0.00000000
Si       3.02195793      -0.54949428       1.56781661       0.00000000
Si       1.31856148      -1.52656361      -2.94792002       0.00000000
Si      -0.24358437      -0.02959893       3.61871610       0.00000000
Si      -2.44545482       0.35342784       2.81248877       0.00000000
Si      -3.15983649       2.01658799      -0.33916164       0.00000000
