10
Lattice="16.290000149 0.0 0.0 0.0 16.290000149 0.0 0.0 0.0 29.1751946751" Properties=species:S:1:pos:R:3:initial_magmoms:R:1 pbc="T T T"
Si       1.53881857      -1.27102726      -1.19714576       0.00000000
Si       1.39515706       1.32017419       1.36653403       0.00000000
Si      -1.21660237      -1.43452999       1.44312183       0.00000000
Si      -1.47155716       1.21005379      -1.45473356       0.00000000
H        0.36041625      -1.80711488      -2.25165400       0.00000000
Si      -2.67129938       2.68135031      -0.02485727       0.00000000
Si       2.85592780       2.49737105      -0.04901433       0.00000000
Si      -2.64849338      -0.06315633       2.72747808       0.00000000
Si      -0.14147865       2.54399303      -2.85272136       0.00000000
Si       0.06501339       2.76079665       2.68037765       0.00000000
