10
Lattice="16.290000149 0.0 0.0 0.0 16.290000149 0.0 0.0 0.0 29.1751946751" Properties=species:S:1:pos:R:3:initial_magmoms:R:1 pbc="T T T"
Si      -1.32967126       1.31447269       1.41942865       0.00000000
Si      -1.42623838      -1.35927019      -1.27952980       0.00000000
Si       1.32905224      -1.39564576       1.36886221       0.00000000
Si       1.33524244       1.36482427      -1.40774107       0.00000000
Si       0.01822851      -2.55363671      -2.63703790       0.00000000
Si       2.63280611       2.64836958       0.09813077       0.00000000
Si      -2.60846234       2.68779138       0.03217440       0.00000000
Si      -2.74159074      -0.07609059       2.67585258       0.00000000
Si       2.66585852      -0.07094295       2.77391041       0.00000000
Si       2.71072118      -2.75230956       0.04445133       0.00000000
