10
Lattice="16.290000149 0.0 0.0 0.0 16.290000149 0.0 0.0 0.0 29.1751946751" Properties=species:S:1:pos:R:3:initial_magmoms:R:1 pbc="T T T"
Si       0.81368551      -0.98469793      -1.94268869       0.00000000
Si      -1.33007851      -1.33393924       1.39798780       0.00000000
Si       1.59423715       1.12270681       1.34459720       0.00000000
Si      -1.50056965       1.31043277      -1.29969657       0.00000000
H        1.26400627       0.29836764      -2.60907931       0.00000000
H        0.69370966       1.86727385       2.32097426       0.00000000
Si      -2.53656479       2.79137298       0.17467189       0.00000000
Si      -1.06328089      -1.69347584      -3.21814067       0.00000000
Si      -2.52982073       0.13735728       2.82786409       0.00000000
Si      -2.89514028      -2.45648315      -0.06856171       0.00000000
