10
Lattice="16.290000149 0.0 0.0 0.0 16.290000149 0.0 0.0 0.0 29.1751946751" Properties=species:S:1:pos:R:3:initial_magmoms:R:1 pbc="T T T"
Si       1.31026987      -1.42716691       1.29701245       0.00000000
Si      -1.35117406      -1.38647449      -1.32262828       0.00000000
Si       1.37603260       1.33004593      -1.35515862       0.00000000
Si      -1.29777544       1.35967744       1.41680580       0.00000000
Si       2.65996154      -0.08337222       2.60916683       0.00000000
Si      -2.66566467       2.70107750       0.05657070       0.00000000
Si       0.01009980       2.68672601      -2.68487647       0.00000000
Si      -2.68930472      -0.02749752      -2.68694790       0.00000000
Si      -2.62658008      -0.04052952       2.75810620       0.00000000
Si       0.03745071      -2.73704583      -2.65628477       0.00000000
