10
Lattice="16.290000149 0.0 0.0 0.0 16.290000149 0.0 0.0 0.0 29.1751946751" Properties=species:S:1:pos:R:3:initial_magmoms:R:1 pbc="T T T"
Si      -0.52577279      -0.90790687      -2.09507073       0.00000000
Si       2.05763879       1.00994743       0.72678327       0.00000000
Si      -1.41191133       1.95165605       0.00837328       0.00000000
Si      -0.67760862      -1.75839149       1.51378415       0.00000000
H        1.45451782       1.57304386      -2.37328539       0.00000000
Si      -1.94131190      -0.33231600       2.84054918       0.00000000
H        2.86269060      -0.45463761      -1.91669359       0.00000000
Si       0.25912503       1.20850624      -3.26473346       0.00000000
Si       1.05238288       2.24992595       2.57097651       0.00000000
Si      -3.08017839       1.16867719       1.45642572       0.00000000
