10
Lattice="16.290000149 0.0 0.0 0.0 16.290000149 0.0 0.0 0.0 29.1751946751" Properties=species:S:1:pos:R:3:initial_magmoms:R:1 pbc="T T T"
Si       0.84825289      -1.87277987      -1.11878119       0.00000000
Si       1.48543624       1.25253811       1.37511445       0.00000000
Si      -1.38515500       1.31652523      -1.42835918       0.00000000
Si      -1.31300659      -1.36603054       1.48385040       0.00000000
H        1.38368890      -1.61171632      -2.50378603       0.00000000
H        2.66040137       0.14374296      -2.08147509       0.00000000
Si       0.00400734       2.55243044       2.71314723       0.00000000
Si      -2.79596676       2.49800636       0.04064105       0.00000000
H       -0.21305691      -0.77498047      -3.67741659       0.00000000
Si       2.53674398      -2.80293888       0.19293556       0.00000000
