10
Lattice="16.290000149 0.0 0.0 0.0 16.290000149 0.0 0.0 0.0 29.1751946751" Properties=species:S:1:pos:R:3:initial_magmoms:R:1 pbc="T T T"
Si      -1.88555123      -1.34609158      -0.39713275       0.00000000
Si       0.53178705       1.26905617      -1.92319966       0.00000000
Si       1.92836135      -1.49514508       0.30668965       0.00000000
H       -0.91324999      -1.00133002       2.06105245       0.00000000
Si      -1.63196479       1.51901971       1.07035037       0.00000000
H       -2.80064199      -1.42271974       0.81451308       0.00000000
Si       0.17524782       2.84395710       1.68393389       0.00000000
Si      -2.77280238       0.07716573      -1.98861044       0.00000000
Si      -0.02733462      -1.85435588       2.94544013       0.00000000
Si       1.51040881      -0.38806038      -3.22175840       0.00000000
