10
Lattice="16.290000149 0.0 0.0 0.0 16.290000149 0.0 0.0 0.0 29.1751946751" Properties=species:S:1:pos:R:3:initial_magmoms:R:1 pbc="T T T"
Si      -0.73785556       1.28684485      -1.81539731       0.00000000
Si       2.20561715      -0.61659117      -0.65603343       0.00000000
Si      -0.67109914       1.06210801       2.02475851       0.00000000
Si      -1.51839091      -1.85039741      -0.09656989       0.00000000
H        2.41025213       1.35933535       0.96479451       0.00000000
H        1.67650166      -1.53657055      -1.97343934       0.00000000
H        1.21108006      -0.80678506       2.76624608       0.00000000
Si      -2.51177141       2.27094005      -0.57154206       0.00000000
Si       2.57139281      -2.62480772       0.55966776       0.00000000
Si       0.58455037      -2.22975893      -2.94147230       0.00000000
