10
Lattice="16.290000149 0.0 0.0 0.0 16.290000149 0.0 0.0 0.0 29.1751946751" Properties=species:S:1:pos:R:3:initial_magmoms:R:1 pbc="T T T"
Si       1.26146503      -1.83106118       0.72964244       0.00000000
Si       1.38422647       1.00159066      -1.60749488       0.00000000
Si      -1.82909009      -1.21414910      -0.98469200       0.00000000
Si      -0.06094089       1.68554261       1.85571743       0.00000000
H       -2.23954922       1.44956566       0.53863244       0.00000000
H        2.35341632      -1.13787280       1.69767540       0.00000000
Si       2.79831252       2.28247337      -0.20358451       0.00000000
Si      -2.87090076       2.28861470      -0.54971902       0.00000000
Si       0.67691467       0.39869775       3.67111475       0.00000000
Si       0.02425581       2.30454632      -3.03296571       0.00000000
