10
Lattice="16.290000149 0.0 0.0 0.0 16.290000149 0.0 0.0 0.0 29.1751946751" Properties=species:S:1:pos:R:3:initial_magmoms:R:1 pbc="T T T"
Si      -2.19899038      -0.18441909      -0.65848414       0.00000000
Si       1.33035218      -0.26570619      -1.90242692       0.00000000
Si       0.52577279       0.90790687       2.09507073       0.00000000
Si       0.80040590      -2.26194797      -0.21583809       0.00000000
Si       0.78489782       2.11641311      -1.16966273       0.00000000
H        2.08058814      -2.21478842       0.60926559       0.00000000
H       -2.28350290      -1.27387801      -1.73668264       0.00000000
H        1.98029061       2.48095073      -0.27821466       0.00000000
H        3.38846338       0.45326925       0.17837714       0.00000000
Si      -2.63424289       1.95323618      -1.53817461       0.00000000
