10
Lattice="16.290000149 0.0 0.0 0.0 16.290000149 0.0 0.0 0.0 29.1751946751" Properties=species:S:1:pos:R:3:initial_magmoms:R:1 pbc="T T T"
Si       1.30995258       1.40643544      -1.28968948       0.00000000
Si      -1.27755955      -1.44783892      -1.27976991       0.00000000
Si      -1.50537520       1.30614850       1.19101897       0.00000000
Si       1.22018617      -1.43127199       1.43495277       0.00000000
H       -1.90711919      -2.23928858      -0.16731974       0.00000000
H       -0.41342391       1.99933688       2.15905193       0.00000000
Si      -0.16102665       2.69664825      -2.55743921       0.00000000
Si       2.69175637       0.00806355      -2.58533070       0.00000000
Si       2.53531535       2.75643744       0.17347571       0.00000000
Si       2.57172187      -2.72956871       0.01776769       0.00000000
