10
Lattice="16.290000149 0.0 0.0 0.0 16.290000149 0.0 0.0 0.0 29.1751946751" Properties=species:S:1:pos:R:3:initial_magmoms:R:1 pbc="T T T"
Si      -1.33010197       1.40880808      -1.31066645       0.00000000
Si       1.33520432       1.37712403       1.34471390       0.00000000
Si       1.35031330      -1.32647842      -1.40668201       0.00000000
Si      -1.38498298      -1.33237540       1.36700375       0.00000000
Si      -2.72025800       0.06419889      -2.58638101       0.00000000
Si       2.64431598      -2.67957470       0.02509067       0.00000000
Si       2.67836208       0.01935252       2.70839167       0.00000000
Si       2.66601426       2.73468378      -0.03859878       0.00000000
Si      -0.05299854       2.73826758       2.66745887       0.00000000
Si      -2.75412491      -2.68066613       0.02970035       0.00000000
