10
Lattice="16.290000149 0.0 0.0 0.0 16.290000149 0.0 0.0 0.0 29.1751946751" Properties=species:S:1:pos:R:3:initial_magmoms:R:1 pbc="T T T"
H       -0.61724440       1.29909819      -0.43972853       0.00000000
Si      -0.84839950      -1.65620106      -1.39702502       0.00000000
Si       2.30565404       0.09303545      -0.36349375       0.00000000
Si      -0.74608201      -0.59027956       2.15435473       0.00000000
H        1.39644397       1.66358694      -1.85746794       0.00000000
Si       2.37009728      -1.97484975       0.92523295       0.00000000
Si      -2.23693793      -0.21029413      -2.54766552       0.00000000
Si       1.32214528      -1.30415135       2.99766373       0.00000000
Si      -2.11215816       2.82038872       0.17738518       0.00000000
Si       0.49034529       2.55878761      -2.67005547       0.00000000
