10
Lattice="16.290000149 0.0 0.0 0.0 16.290000149 0.0 0.0 0.0 29.1751946751" Properties=species:S:1:pos:R:3:initial_magmoms:R:1 pbc="T T T"
Si       1.35226061       1.35218404       1.36151881       0.00000000
Si       1.38820286      -1.36114354      -1.32274498       0.00000000
Si      -1.33763707      -1.36037791       1.37779857       0.00000000
Si      -1.34586352       1.38065896      -1.35404996       0.00000000
Si      -2.68980482       2.71218728       0.03206354       0.00000000
Si       0.05299854      -2.73826758      -2.66745887       0.00000000
Si      -2.70225038       0.03085326      -2.70824580       0.00000000
Si       2.71057457       2.70400970      -0.00093361       0.00000000
Si       2.69039126      -0.00679293       2.72583844       0.00000000
Si      -2.69799869      -2.72425817       0.04872258       0.00000000
