10
Lattice="16.290000149 0.0 0.0 0.0 16.290000149 0.0 0.0 0.0 29.1751946751" Properties=species:S:1:pos:R:3:initial_magmoms:R:1 pbc="T T T"
Si      -1.34765542      -1.36155079      -1.35124914       0.00000000
Si       1.34328970      -1.38284182       1.34375112       0.00000000
Si      -1.38862477       1.35057133       1.33365650       0.00000000
Si       1.34814412       1.34750881      -1.37846960       0.00000000
Si       2.71096553      -0.02464677       2.67265206       0.00000000
Si      -0.03745071       2.73704583       2.65628477       0.00000000
Si      -2.69081318      -0.00377928      -2.71492692       0.00000000
Si       2.71321355       2.70293456      -0.03150921       0.00000000
Si       0.01112607      -2.71726976      -2.70526993       0.00000000
Si      -0.03214017      -2.71927343       2.70541580       0.00000000
