10
Lattice="16.290000149 0.0 0.0 0.0 16.290000149 0.0 0.0 0.0 29.1751946751" Properties=species:S:1:pos:R:3:initial_magmoms:R:1 pbc="T T T"
Si       0.62473780      -0.40703823       2.14840299       0.00000000
Si       1.83311372       0.82492561      -1.16143532       0.00000000
Si      -0.87812875      -1.88924906      -1.06833728       0.00000000
Si      -1.59892867       1.78010606       0.09126001       0.00000000
H        2.66993102       1.75858697      -0.34292524       0.00000000
Si      -2.27287856      -0.60566221      -2.42769712       0.00000000
Si       0.53838450       2.12014352      -2.58751884       0.00000000
Si      -1.49501476      -0.98880301       3.15555988       0.00000000
Si      -3.45405018       0.84818773      -1.01611368       0.00000000
Si      -0.53810757       3.54299358      -1.08709693       0.00000000
