10
Lattice="16.290000149 0.0 0.0 0.0 16.290000149 0.0 0.0 0.0 29.1751946751" Properties=species:S:1:pos:R:3:initial_magmoms:R:1 pbc="T T T"
Si      -1.35487189      -1.34408791       1.37578548       0.00000000
Si       1.33467229       1.35128809       1.39399080       0.00000000
Si      -1.37647243       1.34718301      -1.35927232       0.00000000
Si       1.36269109      -1.37363797      -1.34949863       0.00000000
Si       2.71419095      -2.69250896       0.05820451       0.00000000
Si       2.69847110       2.71306694       0.06508986       0.00000000
Si      -2.71505432      -2.69819417       0.02214397       0.00000000
Si      -0.02324583       2.74493019      -2.67942070       0.00000000
Si       2.72982935      -0.02352276      -2.69978791       0.00000000
Si      -2.72826552       2.71642268      -0.00064185       0.00000000
