10
Lattice="16.290000149 0.0 0.0 0.0 16.290000149 0.0 0.0 0.0 29.1751946751" Properties=species:S:1:pos:R:3:initial_magmoms:R:1 pbc="T T T"
H        0.83681731       0.93366136       0.81851009       0.00000000
Si      -1.29472921       1.29521791      -1.42608352       0.00000000
Si      -1.83311372      -0.82492561       1.16143532       0.00000000
Si       1.42804657      -1.44782263      -1.12067758       0.00000000
H        1.65138248       0.18715581       2.46191963       0.00000000
H        2.29951271       1.83140327       1.33149753       0.00000000
Si      -2.37122129       2.71806797       0.07433840       0.00000000
Si       2.77330737      -0.07273485      -2.48560989       0.00000000
Si       0.06747318      -2.75361276      -2.51072973       0.00000000
Si      -1.20837592      -1.23196384       3.30983831       0.00000000
