10
Lattice="16.290000149 0.0 0.0 0.0 16.290000149 0.0 0.0 0.0 29.1751946751" Properties=species:S:1:pos:R:3:initial_magmoms:R:1 pbc="T T T"
Si      -1.35638686      -1.34980570      -1.35419584       0.00000000
Si      -1.34394130       1.33152832       1.38611350       0.00000000
Si       1.34076475       1.35317773      -1.38523824       0.00000000
Si       1.34586352      -1.38065896       1.35404996       0.00000000
Si       0.06876009      -2.71011845      -2.62407536       0.00000000
Si      -2.70712109       2.67082697       0.02255243       0.00000000
Si       2.70513860       2.68283270      -0.00603927       0.00000000
Si      -2.69677694      -0.05950737       2.71218445       0.00000000
Si       2.69544116      -0.03508866      -2.71521867       0.00000000
Si       2.69812413      -0.02847492       2.71556877       0.00000000
