10
Lattice="16.290000149 0.0 0.0 0.0 16.290000149 0.0 0.0 0.0 29.1751946751" Properties=species:S:1:pos:R:3:initial_magmoms:R:1 pbc="T T T"
Si      -1.66826706      -0.78297886       1.44805244       0.00000000
Si       1.10874791       1.70657300       1.24925266       0.00000000
Si      -0.52596338       0.68097088      -2.22863477       0.00000000
Si       1.41191133      -1.95165605      -0.00837328       0.00000000
H       -2.84666938      -1.31906647       0.39354420       0.00000000
Si       2.46429421       0.29826990       2.56260322       0.00000000
Si       0.88613854      -2.85956292      -2.10344401       0.00000000
Si       3.46955012      -0.94170862       0.71840999       0.00000000
Si      -0.52940057      -2.28397205       2.83217590       0.00000000
H        2.86642915      -0.37861218      -2.38165867       0.00000000
