10
Lattice="16.290000149 0.0 0.0 0.0 16.290000149 0.0 0.0 0.0 29.1751946751" Properties=species:S:1:pos:R:3:initial_magmoms:R:1 pbc="T T T"
Si      -1.30891780      -1.28958157       1.47039480       0.00000000
Si      -1.34904007       1.36226755      -1.37620852       0.00000000
Si       1.43189101      -1.37137366      -1.28435626       0.00000000
Si       1.37186236       1.40598991       1.31255700       0.00000000
Si      -2.62117505      -2.64940562       0.12516159       0.00000000
Si       2.64849338       0.06315633      -2.72747808       0.00000000
Si       2.74647774      -2.63523332       0.18855345       0.00000000
Si      -2.71236647       2.70992297       0.01440379       0.00000000
Si       2.71148681       0.06968862       2.73414753       0.00000000
Si      -2.73854451      -0.01568727      -2.71785027       0.00000000
