10
Lattice="16.290000149 0.0 0.0 0.0 16.290000149 0.0 0.0 0.0 29.1751946751" Properties=species:S:1:pos:R:3:initial_magmoms:R:1 pbc="T T T"
Si      -1.37060803       1.36057502      -1.31335056       0.00000000
Si      -1.38767995      -1.35930277       1.30372275       0.00000000
Si       1.32372541      -1.35193969      -1.38445051       0.00000000
Si       1.35571897       1.37176462       1.33809113       0.00000000
Si      -0.00511506      -2.70518258       2.63901306       0.00000000
Si      -0.02459790       2.69074964      -2.65994334       0.00000000
Si       2.67341708       0.04321599      -2.69474060       0.00000000
Si      -2.70560612       0.01138671       2.69231614       0.00000000
Si       2.73859337       0.01259217       2.65996085       0.00000000
Si      -0.00392589       2.72932437       2.67767019       0.00000000
