10
Lattice="16.290000149 0.0 0.0 0.0 16.290000149 0.0 0.0 0.0 29.1751946751" Properties=species:S:1:pos:R:3:initial_magmoms:R:1 pbc="T T T"
Si       0.98090236      -1.85807000       0.89821672       0.00000000
Si      -1.48918294      -1.01004517      -1.47010888       0.00000000
Si      -1.60893073       0.78855004       1.52583351       0.00000000
Si       1.65780074       1.52722009      -0.73241409       0.00000000
H        0.90578917       2.07643745       1.76836690       0.00000000
H        0.25326063       2.49671945       1.72781338       0.00000000
H       -0.89288749       0.86871313       2.85289641       0.00000000
Si      -1.95216104       2.74066221       0.15544544       0.00000000
Si       0.16759152       3.32242698      -0.85171146       0.00000000
H        0.57620989      -3.07814214      -1.66272352       0.00000000
