10
Lattice="16.290000149 0.0 0.0 0.0 16.290000149 0.0 0.0 0.0 29.1751946751" Properties=species:S:1:pos:R:3:initial_magmoms:R:1 pbc="T T T"
Si       1.81947899      -0.88571989       1.14961937       0.00000000
Si      -0.87382819       1.77997574       1.28636351       0.00000000
Si       1.11980719       1.44119260      -1.55092417       0.00000000
Si      -1.02050335      -2.15391269      -0.38590030       0.00000000
H       -1.92971342      -0.58336120      -1.87987449       0.00000000
Si       2.60899013       2.45123777      -0.08081529       0.00000000
Si      -0.05108544      -2.55449683      -2.54057595       0.00000000
Si      -1.95506066       0.61281352       2.99252889       0.00000000
H        3.18520002      -0.62690437      -1.74353881       0.00000000
Si       1.00005940       3.23978781       1.44501822       0.00000000
