10
Lattice="16.290000149 0.0 0.0 0.0 16.290000149 0.0 0.0 0.0 29.1751946751" Properties=species:S:1:pos:R:3:initial_magmoms:R:1 pbc="T T T"
Si      -1.37780821       1.36604683       1.31270871       0.00000000
Si      -1.37828062      -1.33574743      -1.34421792       0.00000000
Si       1.35620767       1.35505108      -1.35807614       0.00000000
Si       1.35462754      -1.35184195       1.36828746       0.00000000
Si      -0.00122175       2.70637175       2.64569418       0.00000000
Si      -0.00711873      -2.68154579      -2.68260080       0.00000000
Si      -2.73095336       0.01440036       2.67454845       0.00000000
Si       2.71549415      -2.70378164       0.01622141       0.00000000
Si       0.00052128       2.72512155      -2.69680912       0.00000000
Si       2.72774423       0.01446552       2.69783025       0.00000000
