10
Lattice="16.290000149 0.0 0.0 0.0 16.290000149 0.0 0.0 0.0 29.1751946751" Properties=species:S:1:pos:R:3:initial_magmoms:R:1 pbc="T T T"
Si       0.47623815      -0.42981165       2.20955419       0.00000000
Si       1.83446579       1.29080332      -0.63348100       0.00000000
Si      -1.65822428       1.65367937      -0.09724092       0.00000000
Si      -0.65448334      -1.88209775      -1.29610802       0.00000000
H        1.83407483       0.14387328       2.48450123       0.00000000
Si       0.80594776       2.11711358      -2.58915265       0.00000000
Si      -2.06999964      -0.66070612      -2.67542370       0.00000000
Si      -3.42153534       0.63759061      -1.25823862       0.00000000
Si      -0.71786773       3.37939311      -1.36907519       0.00000000
Si      -1.90120755       2.46099548       2.06881305       0.00000000
