10
Lattice="16.290000149 0.0 0.0 0.0 16.290000149 0.0 0.0 0.0 29.1751946751" Properties=species:S:1:pos:R:3:initial_magmoms:R:1 pbc="T T T"
Si      -0.08125452       0.69349789       2.22863185       0.00000000
Si       0.73015039      -2.18996409      -0.40229676       0.00000000
Si       1.93614797       1.03153168      -0.89964630       0.00000000
Si      -2.20187045       0.38302677      -0.80622733       0.00000000
H        2.45276903      -0.25177824       1.49076492       0.00000000
Si       2.63129114      -1.64097968       0.88322067       0.00000000
Si      -2.15350544       2.67691943      -0.13983671       0.00000000
Si       1.45832968      -1.84483274      -2.66448300       0.00000000
Si       1.00919809       2.07464555      -2.73491192       0.00000000
Si       0.24358437       0.02959893      -3.61871610       0.00000000
