10
Lattice="16.290000149 0.0 0.0 0.0 16.290000149 0.0 0.0 0.0 29.1751946751" Properties=species:S:1:pos:R:3:initial_magmoms:R:1 pbc="T T T"
Si      -1.36379881      -1.36177885       1.32890094       0.00000000
Si       1.33547050      -1.44186049      -1.28861000       0.00000000
Si      -1.38491065       1.35656605      -1.33946236       0.00000000
Si       1.38041461       1.34426710       1.35655903       0.00000000
Si       2.69118947      -0.10148670      -2.60325886       0.00000000
Si       0.01941768      -2.70019784       2.67889555       0.00000000
Si      -2.71375112       0.00332316       2.68400121       0.00000000
Si      -0.03521898       2.75172173      -2.64975245       0.00000000
Si      -2.69847110      -2.71306694      -0.06508986       0.00000000
Si      -2.70863606       2.70850574       0.04498815       0.00000000
