10
Lattice="16.290000149 0.0 0.0 0.0 16.290000149 0.0 0.0 0.0 29.1751946751" Properties=species:S:1:pos:R:3:initial_magmoms:R:1 pbc="T T T"
Si      -1.45842742      -1.29699352       1.30208894       0.00000000
Si       1.36967950      -1.38704464      -1.31160005       0.00000000
Si      -1.36314721       1.32615262      -1.38054104       0.00000000
Si       1.38266263       1.34853508       1.34249658       0.00000000
Si      -0.05685210       2.72088614       2.57161836       0.00000000
Si      -0.21874212      -2.68545539       2.67621143       0.00000000
Si       2.72186354       2.68144805      -0.03220941       0.00000000
Si       2.72243369      -0.04008969      -2.68680203       0.00000000
Si       0.00876402      -2.73298961      -2.67857462       0.00000000
Si      -0.01000206       2.67779909      -2.74238077       0.00000000
