10
Lattice="16.290000149 0.0 0.0 0.0 16.290000149 0.0 0.0 0.0 29.1751946751" Properties=species:S:1:pos:R:3:initial_magmoms:R:1 pbc="T T T"
Si       1.35597961      -1.39539978      -1.28910598       0.00000000
Si       1.39282759       1.34320825       1.32928022       0.00000000
Si      -1.32471259      -1.38363515       1.36148963       0.00000000
Si      -1.29400268       1.35309628      -1.43177268       0.00000000
Si      -2.64431598       2.67957470      -0.02509067       0.00000000
Si       2.70198974      -0.06522516      -2.63569876       0.00000000
Si       0.03404610       2.69892722       2.68330100       0.00000000
Si      -2.70427034      -0.03544704       2.70273168       0.00000000
Si      -2.65629457      -0.04199562      -2.75005385       0.00000000
Si      -2.63858548      -2.76773619      -0.00207144       0.00000000
