10
Lattice="16.290000149 0.0 0.0 0.0 16.290000149 0.0 0.0 0.0 29.1751946751" Properties=species:S:1:pos:R:3:initial_magmoms:R:1 pbc="T T T"
Si      -0.36564534      -0.65707345      -2.22498787       0.00000000
Si      -1.98514829      -0.60896908       1.17310540       0.00000000
Si       0.78416803       2.03313863       1.00984101       0.00000000
Si       1.47502693      -1.86590549       0.37131270       0.00000000
H       -2.23943519       2.06970968      -0.27030818       0.00000000
Si       1.80672392       0.69820570       2.62926854       0.00000000
H        2.76273516       1.94507489      -0.05254453       0.00000000
Si      -2.13605885      -2.13596111      -1.89276993       0.00000000
H       -0.44075853       3.27743400      -1.35483769       0.00000000
Si      -1.05819841      -1.65208295       3.00837102       0.00000000
