10
Lattice="16.290000149 0.0 0.0 0.0 16.290000149 0.0 0.0 0.0 29.1751946751" Properties=species:S:1:pos:R:3:initial_magmoms:R:1 pbc="T T T"
Si       1.39939246       1.41987062       1.25718831       0.00000000
Si      -1.26065053       1.39211898      -1.43145175       0.00000000
Si       1.43078329      -1.28181124      -1.41295468       0.00000000
Si      -1.30090312      -1.59479101       1.26634932       0.00000000
Si       0.28285956      -2.72461655       2.53485761       0.00000000
Si      -2.53281809      -2.72657135      -0.35675428       0.00000000
Si      -2.58317048       2.78826159      -0.06619852       0.00000000
Si       2.87037169       0.12965781       2.52493805       0.00000000
Si      -2.56712483       0.07871328      -2.87894986       0.00000000
Si       2.87402096      -2.63226854      -0.13123003       0.00000000
