10
Lattice="16.290000149 0.0 0.0 0.0 16.290000149 0.0 0.0 0.0 29.1751946751" Properties=species:S:1:pos:R:3:initial_magmoms:R:1 pbc="T T T"
Si       1.36026388       1.35092971      -1.35107409       0.00000000
Si       1.37217187      -1.35096229       1.34809822       0.00000000
Si      -1.35119035       1.36223497       1.35924314       0.00000000
Si      -1.36933741      -1.36036162      -1.35387491       0.00000000
Si      -0.00579924      -2.66984957       2.71057981       0.00000000
Si       2.66141135      -2.71932230      -0.06508986       0.00000000
Si      -0.02979441       2.69940452      -2.68265915       0.00000000
Si       2.71871957       2.69483518       0.02675365       0.00000000
Si       2.68035662      -0.01770723      -2.73403667       0.00000000
Si      -2.68845601       0.01457955       2.73053564       0.00000000
