10
Lattice="16.290000149 0.0 0.0 0.0 16.290000149 0.0 0.0 0.0 29.1751946751" Properties=species:S:1:pos:R:3:initial_magmoms:R:1 pbc="T T T"
Si      -1.22518720       1.32240592      -1.51279219       0.00000000
Si       1.34241004       1.45779211       1.28744299       0.00000000
Si      -1.61901424      -1.02975607       1.39291132       0.00000000
Si       1.77969881      -1.54611649      -0.63100111       0.00000000
H       -0.85548565      -1.75172888      -1.75220384       0.00000000
H       -0.20295711      -2.17201088      -1.71165032       0.00000000
H        1.33861447       0.59797333      -2.84662374       0.00000000
Si      -0.05216058      -2.30912381       2.51857786       0.00000000
Si       0.02844234       1.06482844      -3.45122130       0.00000000
Si       1.02196945      -3.41630625       0.65302838       0.00000000
