10
Lattice="16.290000149 0.0 0.0 0.0 16.290000149 0.0 0.0 0.0 29.1751946751" Properties=species:S:1:pos:R:3:initial_magmoms:R:1 pbc="T T T"
Si       1.25362954      -0.25757748      -1.93842911       0.00000000
Si      -0.32661450       2.12459069       0.93203077       0.00000000
Si       1.22518720      -1.32240592       1.51279219       0.00000000
Si      -2.06211854      -0.69489883      -0.90136764       0.00000000
H        2.56380167      -0.72443260      -1.33383155       0.00000000
H       -2.51841773       0.29250324       1.72136566       0.00000000
H        0.36970155      -3.07413480      -0.23941165       0.00000000
H       -1.24170526       2.04796253       2.14367660       0.00000000
H       -3.19240020      -0.63783496       0.10395122       0.00000000
Si       0.28403244      -2.24842727      -2.81893648       0.00000000
