10
Lattice="16.290000149 0.0 0.0 0.0 16.290000149 0.0 0.0 0.0 29.1751946751" Properties=species:S:1:pos:R:3:initial_magmoms:R:1 pbc="T T T"
Si      -1.39282759      -1.34320825      -1.32928022       0.00000000
Si      -1.35878149       1.35571897       1.35402078       0.00000000
Si       1.32983416      -1.36985869       1.37263456       0.00000000
Si       1.36006840       1.34443000      -1.37234281       0.00000000
Si      -0.03684798      -2.73860804      -2.61838620       0.00000000
Si       2.70669755       2.70145217      -0.00983204       0.00000000
Si      -2.70193925       2.71349048      -0.00965699       0.00000000
Si       2.68947902      -2.72741843       0.03305550       0.00000000
Si       2.70290198      -0.02223585       2.71588970       0.00000000
Si      -0.01112607       2.71726976       2.70526993       0.00000000
