10
Lattice="10.86 0.0 0.0 0.0 10.86 0.0 0.0 0.0 10.86" Properties=species:S:1:pos:R:3:initial_magmoms:R:1 pbc="T T T"
Si      -1.19101620       1.36108380      -1.20515592       0.00000000
Si      -1.19101620      -1.35391620       1.50984408       0.00000000
Si       1.54455264      -1.27109784      -1.38095760       0.00000000
Si       1.52398380       1.36108380       1.50984408       0.00000000
Si      -2.54851620       0.00358380      -2.56265592       0.00000000
Si      -2.54851620      -2.71141620       0.15234408       0.00000000
Si      -2.54851620       2.71858380       0.15234408       0.00000000
Si       0.15657948       2.70062136      -2.59473636       0.00000000
Si      -2.54851620       0.00358380       2.86734408       0.00000000
Si       2.77751016      -2.76498858       0.07529238       0.00000000
