10
Lattice="16.290000149 0.0 0.0 0.0 16.290000149 0.0 0.0 0.0 29.1751946751" Properties=species:S:1:pos:R:3:initial_magmoms:R:1 pbc="T T T"
Si      -1.37015191       1.38728899       1.31075397       0.00000000
Si      -1.36041049      -1.34579836      -1.36755808       0.00000000
Si       1.35366643       1.34723188      -1.37450177       0.00000000
Si       1.34749252      -1.33354828       1.40738222       0.00000000
Si       0.01277136       2.73766485       2.65106241       0.00000000
Si       2.67118535      -2.72783057       0.04265413       0.00000000
Si      -2.69553890      -2.70982686       0.00177969       0.00000000
Si      -0.06551838      -2.61761732       2.78885686       0.00000000
Si      -0.00998577      -2.69540858      -2.74054274       0.00000000
Si       2.72771165       2.71137278      -0.04294589       0.00000000
