10
Lattice="16.290000149 0.0 0.0 0.0 16.290000149 0.0 0.0 0.0 29.1751946751" Properties=species:S:1:pos:R:3:initial_magmoms:R:1 pbc="T T T"
H        0.43714215       1.29246490      -0.65702538       0.00000000
Si      -0.81363664       0.98341102       1.94694827       0.00000000
Si      -1.88235839      -0.70683940      -1.26917932       0.00000000
Si       2.00471258      -1.36187659      -0.11813036       0.00000000
H        0.94653046      -0.25093116      -2.48537648       0.00000000
H       -0.66960046      -2.67006134      -1.06273564       0.00000000
Si       3.17239771       0.70232707      -0.68016131       0.00000000
Si      -2.31832766       2.29936610       0.65682116       0.00000000
Si       0.77592529      -2.95787307      -1.49686254       0.00000000
Si       1.99058915       0.85270006      -2.69266624       0.00000000
