10
Lattice="16.290000149 0.0 0.0 0.0 16.290000149 0.0 0.0 0.0 29.1751946751" Properties=species:S:1:pos:R:3:initial_magmoms:R:1 pbc="T T T"
Si       1.34415307       1.35549906      -1.36574921       0.00000000
Si      -1.35659863      -1.36278069      -1.35049059       0.00000000
Si       1.38968362      -1.34844549       1.33324805       0.00000000
Si      -1.38419389       1.35488004       1.33476516       0.00000000
Si       0.02594997      -2.69846296       2.68315513       0.00000000
Si      -0.02881701       2.72288167       2.67253536       0.00000000
Si      -2.70197997       0.00037956      -2.70451137       0.00000000
Si       2.70457985      -0.00226268      -2.70442385       0.00000000
Si       2.71741637       2.70276352      -0.02231902       0.00000000
Si       2.70997184      -2.71696840      -0.05026886       0.00000000
