10
Lattice="16.290000149 0.0 0.0 0.0 16.290000149 0.0 0.0 0.0 29.1751946751" Properties=species:S:1:pos:R:3:initial_magmoms:R:1 pbc="T T T"
Si      -1.52114392       1.31681194       1.19714576       0.00000000
Si       1.41301090       1.28406904      -1.38147464       0.00000000
Si      -1.22961808      -1.43329847      -1.42657949       0.00000000
Si       0.98178202      -0.86084832       1.98697663       0.00000000
Si      -0.08154774       2.64705335       2.40730366       0.00000000
Si      -0.76523905      -1.18275990       3.47952124       0.00000000
Si       1.09915147      -3.16609837       1.75167869       0.00000000
Si      -2.68356575      -0.12264252       2.70127292       0.00000000
Si      -2.57342906      -2.81157909      -0.11302470       0.00000000
Si       0.06551838       2.61761732      -2.78885686       0.00000000
