10
Lattice="16.290000149 0.0 0.0 0.0 16.290000149 0.0 0.0 0.0 29.1751946751" Properties=species:S:1:pos:R:3:initial_magmoms:R:1 pbc="T T T"
Si      -1.33214734       1.36657789      -1.37167178       0.00000000
Si       1.37046468       1.37227613       1.33009713       0.00000000
Si       1.36967624      -1.33972219      -1.38059939       0.00000000
Si      -1.37883448      -1.32672277       1.38949782       0.00000000
Si      -2.63650394      -2.69470811      -0.06602347       0.00000000
Si       0.05996649      -2.67613751       2.67635731       0.00000000
Si      -0.02586852       2.70967862       2.67819535       0.00000000
Si      -2.70308117       2.70633917      -0.00621432       0.00000000
Si      -2.66460419       0.01190799      -2.75440095       0.00000000
Si       2.77636989       0.03399723       2.66311177       0.00000000
