10
Lattice="16.290000149 0.0 0.0 0.0 16.290000149 0.0 0.0 0.0 29.1751946751" Properties=species:S:1:pos:R:3:initial_magmoms:R:1 pbc="T T T"
Si       1.38360745      -1.34364808      -1.33581546       0.00000000
Si      -1.29665143       1.30342807      -1.46086035       0.00000000
Si       1.38797317       1.35878149       1.33018465       0.00000000
Si      -1.34957764      -1.39108456       1.34509318       0.00000000
Si      -2.77962789       0.05253525       2.46626673       0.00000000
Si      -2.65880495       2.67312386      -0.19862473       0.00000000
Si       2.71088408      -0.01482390       2.66471641       0.00000000
Si       0.01826109      -2.68327253      -2.70839167       0.00000000
Si      -2.70901073      -2.69918786      -0.04452135       0.00000000
Si       2.72802117       0.02798622      -2.69882221       0.00000000
