10
Lattice="16.290000149 0.0 0.0 0.0 16.290000149 0.0 0.0 0.0 29.1751946751" Properties=species:S:1:pos:R:3:initial_magmoms:R:1 pbc="T T T"
Si       1.34739478       1.35633799       1.36236489       0.00000000
Si      -1.35166276       1.36793647      -1.35714253       0.00000000
Si       1.37901367      -1.34936587      -1.34871090       0.00000000
Si      -1.36018243      -1.34443000       1.37260538       0.00000000
Si      -0.04917951      -2.75213037      -2.59203516       0.00000000
Si       2.67893939      -2.69922044       0.06937861       0.00000000
Si      -0.02252907       2.71959923       2.69920149       0.00000000
Si       2.69285105      -0.00273672       2.73211111       0.00000000
Si      -2.67230936       0.02813283      -2.75212237       0.00000000
Si       2.69824304       2.73123030       0.01385822       0.00000000
