10
Lattice="16.290000149 0.0 0.0 0.0 16.290000149 0.0 0.0 0.0 29.1751946751" Properties=species:S:1:pos:R:3:initial_magmoms:R:1 pbc="T T T"
Si       0.65008504      -0.42327936       2.13220492       0.00000000
Si      -1.07302231      -1.75809827      -1.06518636       0.00000000
Si      -1.70067602       1.59813046      -0.01441255       0.00000000
Si       1.79561414       0.59350987      -1.43051815       0.00000000
Si      -0.30564927       3.03324690      -1.18839320       0.00000000
H        3.10598175       1.16010865      -0.52211928       0.00000000
H       -0.56382949      -3.03920904       1.33228526       0.00000000
Si      -2.00134055      -0.71516359      -2.89861394       0.00000000
Si       0.76387069       1.92112859      -3.05554731       0.00000000
Si      -1.25850025      -1.21225294       3.25332304       0.00000000
