10
Lattice="16.290000149 0.0 0.0 0.0 16.290000149 0.0 0.0 0.0 29.1751946751" Properties=species:S:1:pos:R:3:initial_magmoms:R:1 pbc="T T T"
Si      -1.31509334       0.22530699       1.91109195       0.00000000
Si       2.20652939      -0.09795177       0.81532999       0.00000000
Si      -1.28619651      -0.19228716      -2.02662572       0.00000000
Si      -0.54975492       2.34984881       0.72398246       0.00000000
Si      -0.52505928      -2.03377394       1.69907581       0.00000000
H        2.08955090       0.69177115       2.09976794       0.00000000
H       -2.42413936       0.77675608      -1.75153281       0.00000000
H        0.22584456      -1.66104245      -2.65278375       0.00000000
H        0.64892845       2.70246215       1.60486911       0.00000000
H        0.75442249      -1.98910676       2.52251651       0.00000000
