10
Lattice="16.290000149 0.0 0.0 0.0 16.290000149 0.0 0.0 0.0 29.1751946751" Properties=species:S:1:pos:R:3:initial_magmoms:R:1 pbc="T T T"
Si       1.34381098       1.37828062      -1.31355479       0.00000000
Si      -1.36484137       1.36948402       1.34448050       0.00000000
Si       1.54549747      -1.32445846       1.18471713       0.00000000
Si      -1.40854744      -1.32548473      -1.35641315       0.00000000
Si       2.62809830      -2.74460439      -0.31339994       0.00000000
Si       2.57342906       2.81157909       0.11302470       0.00000000
Si      -0.05659146       2.71936955      -2.67405247       0.00000000
Si       2.64808613       0.03227049      -2.74535664       0.00000000
Si      -2.71179632       0.08004906       2.71635650       0.00000000
Si      -2.78466150      -2.64565892       0.00741050       0.00000000
