10
Lattice="16.290000149 0.0 0.0 0.0 16.290000149 0.0 0.0 0.0 29.1751946751" Properties=species:S:1:pos:R:3:initial_magmoms:R:1 pbc="T T T"
Si       1.36358704      -1.33993396       1.36291922       0.00000000
Si       1.35521398       1.37171575      -1.34523905       0.00000000
Si      -1.35500221       1.35312886       1.36531159       0.00000000
Si      -1.33820722      -1.40419801      -1.33581546       0.00000000
Si       2.70769124      -2.67108761      -0.02395283       0.00000000
Si      -2.76799683      -0.08459397      -2.62214980       0.00000000
Si       0.01125639      -2.73108368       2.69006965       0.00000000
Si      -2.72396495       2.70093089       0.02325263       0.00000000
Si       0.00990432       2.71534754      -2.71288465       0.00000000
Si       2.71306694       2.71995761       0.02141459       0.00000000
