10
Lattice="16.290000149 0.0 0.0 0.0 16.290000149 0.0 0.0 0.0 29.1751946751" Properties=species:S:1:pos:R:3:initial_magmoms:R:1 pbc="T T T"
Si      -1.33692846      -1.35018037       1.37027137       0.00000000
Si       1.35166276      -1.36138789      -1.36084778       0.00000000
Si      -1.40590520       1.33827890      -1.33301464       0.00000000
Si       1.34361550       1.34619095       1.38871009       0.00000000
Si       2.65180025       2.69322572      -0.03431003       0.00000000
Si      -2.71567356       0.04583664       2.66836331       0.00000000
Si      -0.05848110       2.69195510      -2.70923775       0.00000000
Si       2.71539641      -0.01137042      -2.71075486       0.00000000
Si      -2.71640340      -2.71013474       0.01324554       0.00000000
Si      -0.07532496       2.70120782       2.72481731       0.00000000
