10
Lattice="16.290000149 0.0 0.0 0.0 16.290000149 0.0 0.0 0.0 29.1751946751" Properties=species:S:1:pos:R:3:initial_magmoms:R:1 pbc="T T T"
H       -1.13794285       0.96904324       0.27509291       0.00000000
H        1.51204107      -1.46875528      -0.62615803       0.00000000
Si       1.47933075       1.20228346      -1.38938112       0.00000000
Si       1.28619651       0.19228716       2.02662572       0.00000000
Si      -1.31811351      -1.70222357      -1.13634466       0.00000000
H       -2.29722885      -0.84523924       2.21632284       0.00000000
Si       2.12477314      -2.77523773      -0.18622527       0.00000000
Si       0.04735992       2.41585589      -2.77208112       0.00000000
Si      -2.60652709      -0.35495910      -2.63875048       0.00000000
Si       0.73644158       2.54213597       2.75060818       0.00000000
