10
Lattice="16.290000149 0.0 0.0 0.0 16.290000149 0.0 0.0 0.0 29.1751946751" Properties=species:S:1:pos:R:3:initial_magmoms:R:1 pbc="T T T"
Si      -1.34791279      -1.35355240       1.35775521       0.00000000
Si      -1.36902463       1.35804844      -1.33925814       0.00000000
Si       1.33020233      -1.35115777      -1.39019803       0.00000000
Si       1.31422836       1.36634005       1.39442843       0.00000000
Si       0.02837378       2.69549003      -2.67247701       0.00000000
Si       2.68154907      -2.70928766      -0.03048808       0.00000000
Si      -2.69195183       0.01135413       2.70900435       0.00000000
Si       2.69003616       2.71435385       0.04364609       0.00000000
Si      -2.71850453      -2.70184313       0.00224649       0.00000000
Si       2.70316590       0.01718595       2.72475896       0.00000000
