10
Lattice="16.290000149 0.0 0.0 0.0 16.290000149 0.0 0.0 0.0 29.1751946751" Properties=species:S:1:pos:R:3:initial_magmoms:R:1 pbc="T T T"
H        1.27948177       0.04466718       0.82344069       0.00000000
Si      -1.35725349      -1.39216622       1.33114743       0.00000000
Si       0.60584140      -1.51887636      -1.75865156       0.00000000
Si      -0.79003406       2.25908093       0.21201614       0.00000000
Si       0.52505928       2.03377394      -1.69907581       0.00000000
Si       0.48671262      -2.56147220       2.26557057       0.00000000
Si       2.73158868       1.93582217      -0.88374582       0.00000000
H       -3.05836608       0.99624754      -1.50937870       0.00000000
Si       3.59290614      -0.15206715      -0.10549750       0.00000000
Si       2.67656105      -2.23862884      -0.91618864       0.00000000
