10
Lattice="16.290000149 0.0 0.0 0.0 16.290000149 0.0 0.0 0.0 29.1751946751" Properties=species:S:1:pos:R:3:initial_magmoms:R:1 pbc="T T T"
Si      -0.73840942       1.32380686      -1.79065675       0.00000000
Si       1.99444988      -0.88654090      -0.97710644       0.00000000
Si      -1.51708771      -1.84984355      -0.07074985       0.00000000
Si      -0.62630164       1.07237071       2.04672743       0.00000000
H        2.45509850       1.39352806       1.03003025       0.00000000
H        1.24574518      -0.77341500       2.76647948       0.00000000
Si      -2.49466691       2.29563569      -0.52812937       0.00000000
Si       0.80394409      -2.03361755      -2.66970536       0.00000000
Si      -0.63022753      -0.40681017      -3.59695140       0.00000000
Si       2.56798820      -2.62728380       0.54000368       0.00000000
