10
Lattice="16.290000149 0.0 0.0 0.0 16.290000149 0.0 0.0 0.0 29.1751946751" Properties=species:S:1:pos:R:3:initial_magmoms:R:1 pbc="T T T"
Si      -0.56062036       1.03509919       2.00984999       0.00000000
Si      -1.62067582      -1.68733451      -0.07115830       0.00000000
Si       2.19453995      -0.72288505      -0.46636549       0.00000000
Si       0.04412961       2.14530994      -0.97987809       0.00000000
Si       0.68277907       2.82161373       1.16683274       0.00000000
Si       1.90852013       0.16197147      -2.70772064       0.00000000
Si       1.92686267      -2.75344986       0.72961327       0.00000000
Si      -3.44403183      -0.23156235       0.09689082       0.00000000
Si      -0.21856293      -0.80796772      -3.38770690       0.00000000
Si      -2.79287166       1.54132723       1.68308781       0.00000000
