10
Lattice="16.290000149 0.0 0.0 0.0 16.290000149 0.0 0.0 0.0 29.1751946751" Properties=species:S:1:pos:R:3:initial_magmoms:R:1 pbc="T T T"
Si       1.36130644      -1.35071794      -1.32843414       0.00000000
Si      -1.17193193      -1.53401302       1.31924395       0.00000000
Si       1.54033354       1.31652523       1.18652599       0.00000000
Si      -1.03234944       1.54414540      -1.48323772       0.00000000
H        2.71552673      -0.76875769      -1.05547102       0.00000000
Si       0.13090644       2.49219083       2.65853126       0.00000000
Si      -1.39942341      -3.37520658      -0.13598558       0.00000000
Si       2.32075487       2.81503420      -0.52322794       0.00000000
Si       0.91382014      -3.55780119      -0.71616350       0.00000000
Si      -2.64295478      -0.32021253       2.65243365       0.00000000
