10
Lattice="16.290000149 0.0 0.0 0.0 16.290000149 0.0 0.0 0.0 29.1751946751" Properties=species:S:1:pos:R:3:initial_magmoms:R:1 pbc="T T T"
Si      -1.33497594      -1.37792224      -1.34448050       0.00000000
Si       1.34302418      -1.35757603       1.36388200       0.00000000
Si       1.33142570       1.35759232      -1.38328351       0.00000000
Si      -1.38817354       1.36093177       1.32359106       0.00000000
Si      -2.66301266       0.03054375      -2.65689745       0.00000000
Si      -0.03656128       2.71363709       2.68534327       0.00000000
Si       2.69121717       2.71218728      -0.02955447       0.00000000
Si       2.69107056       0.00417024       2.71440176       0.00000000
Si       2.70191970      -2.71257824       0.00916101       0.00000000
Si      -2.72054894      -2.70886412       0.02322346       0.00000000
