10
Lattice="16.290000149 0.0 0.0 0.0 16.290000149 0.0 0.0 0.0 29.1751946751" Properties=species:S:1:pos:R:3:initial_magmoms:R:1 pbc="T T T"
Si       1.35506737       1.35506737      -1.33397743       0.00000000
Si       1.39535254      -1.45044532       1.19346969       0.00000000
Si      -1.37676565      -1.36599796      -1.33651567       0.00000000
Si      -1.30427515       1.34601013       1.43180185       0.00000000
Si      -0.01998783      -2.77687488       2.43195670       0.00000000
Si       2.66204666       2.66909535       0.11217862       0.00000000
Si      -0.01912446       2.70151733      -2.67101825       0.00000000
Si       2.70769124      -0.03007134      -2.67116412       0.00000000
Si      -2.70467759       2.68709906       0.07130418       0.00000000
Si      -2.64808613      -0.03227049       2.74535664       0.00000000
