10
Lattice="16.290000149 0.0 0.0 0.0 16.290000149 0.0 0.0 0.0 29.1751946751" Properties=species:S:1:pos:R:3:initial_magmoms:R:1 pbc="T T T"
Si       1.37968156       1.34350147      -1.33526113       0.00000000
Si       1.36896274      -1.34780203       1.34205895       0.00000000
Si      -1.35027811       1.37652130       1.34911935       0.00000000
Si      -1.38026800      -1.34395759      -1.35708418       0.00000000
Si      -0.05427828       2.68980157      -2.59717583       0.00000000
Si      -0.00586440      -2.69073335       2.68385533       0.00000000
Si      -2.72733699       0.02114442       2.68128792       0.00000000
Si       2.72396495      -2.70093089      -0.02325263       0.00000000
Si       2.72640845       0.01508454       2.70001839       0.00000000
Si      -0.04403187      -2.78552487      -2.64540243       0.00000000
