10
Lattice="16.290000149 0.0 0.0 0.0 16.290000149 0.0 0.0 0.0 29.1751946751" Properties=species:S:1:pos:R:3:initial_magmoms:R:1 pbc="T T T"
Si      -1.49499033       1.07163766       1.42334105       0.00000000
Si      -1.42013778      -1.43822782      -1.16665768       0.00000000
Si       1.56617763      -1.06955254       1.36539911       0.00000000
Si       1.31234685       1.48968793      -1.26760386       0.00000000
H       -2.53904902      -0.03199356       1.63063081       0.00000000
Si       2.00006178       0.73867006       2.85566805       0.00000000
Si      -0.31318177       0.92126467       3.43584598       0.00000000
Si       0.01665815      -2.68252319      -2.53299040       0.00000000
Si      -2.71048498      -0.02329470      -2.52476300       0.00000000
Si       2.81837365       0.15457581      -2.51373477       0.00000000
