10
Lattice="16.290000149 0.0 0.0 0.0 16.290000149 0.0 0.0 0.0 29.1751946751" Properties=species:S:1:pos:R:3:initial_magmoms:R:1 pbc="T T T"
Si       1.43902033       1.20979315      -1.39850420       0.00000000
Si      -1.32383944       1.44739909       1.30396782       0.00000000
Si      -1.36845775      -1.31981581      -1.39144381       0.00000000
Si       1.40898727      -1.36083403       1.33222983       0.00000000
Si       0.20730654      -2.55691100      -2.60276871       0.00000000
Si       0.06234183       2.36073053      -2.89740901       0.00000000
Si      -2.66128103       0.02549385       2.65859837       0.00000000
H       -0.85667482       3.11297016      -1.94387612       0.00000000
Si      -2.59131548      -2.75317293       0.05107118       0.00000000
Si       2.69808014       2.68356575      -0.02589882       0.00000000
