10
Lattice="16.290000149 0.0 0.0 0.0 16.290000149 0.0 0.0 0.0 29.1751946751" Properties=species:S:1:pos:R:3:initial_magmoms:R:1 pbc="T T T"
Si       1.36337527       1.36176256      -1.32986372       0.00000000
Si      -1.34998489       1.36480879       1.35603387       0.00000000
Si       1.38248344      -1.33828867       1.35113244       0.00000000
Si      -1.33424875      -1.35179308      -1.39410750       0.00000000
Si       2.69961140      -0.07980471      -2.61818197       0.00000000
Si      -2.69004917      -2.69555519      -0.01843872       0.00000000
Si      -0.02130732       2.71857296      -2.66938444       0.00000000
Si       0.02239875      -2.70080057       2.69470851       0.00000000
Si      -2.71876844       0.02101410       2.69870551       0.00000000
Si       0.01630629       2.72686457       2.70850837       0.00000000
