10
Lattice="16.290000149 0.0 0.0 0.0 16.290000149 0.0 0.0 0.0 29.1751946751" Properties=species:S:1:pos:R:3:initial_magmoms:R:1 pbc="T T T"
Si      -1.35521398      -1.35006634      -1.35504192       0.00000000
Si      -1.34410420       1.33115365       1.38687205       0.00000000
Si       1.34131861       1.35184195      -1.38588010       0.00000000
Si       1.34526079      -1.38051235       1.35469181       0.00000000
Si       0.07042167      -2.71090037      -2.62579670       0.00000000
Si      -2.70769124       2.67108761       0.02395283       0.00000000
Si       2.70460266       2.68183901      -0.00557246       0.00000000
Si      -2.69643485      -0.05999607       2.71402248       0.00000000
Si       2.69687306      -0.02780703       2.71644403       0.00000000
Si       2.69623123      -0.03640815      -2.71749433       0.00000000
