10
Lattice="16.290000149 0.0 0.0 0.0 16.290000149 0.0 0.0 0.0 29.1751946751" Properties=species:S:1:pos:R:3:initial_magmoms:R:1 pbc="T T T"
Si      -1.33245685      -1.35466990      -1.38272918       0.00000000
Si       1.33214734      -1.36657789       1.37167178       0.00000000
Si      -1.37093383       1.33976129       1.36545746       0.00000000
Si       1.35161389       1.35178331      -1.37289714       0.00000000
Si       0.00223173       2.72364567       2.67492772       0.00000000
Si      -2.69464295       2.70413025      -0.02736633       0.00000000
Si       2.70261202       0.00569824       2.70176890       0.00000000
Si       2.70182359      -2.70630008      -0.00892761       0.00000000
Si      -2.69205284      -2.71853387      -0.04075775       0.00000000
Si      -2.69208542      -0.00230504      -2.73651656       0.00000000
