10
Lattice="16.290000149 0.0 0.0 0.0 16.290000149 0.0 0.0 0.0 29.1751946751" Properties=species:S:1:pos:R:3:initial_magmoms:R:1 pbc="T T T"
Si      -1.40443259       1.31900131       1.31297129       0.00000000
Si       1.36996621      -1.23887080       1.44510574       0.00000000
Si       1.33134262       1.39781233      -1.34202978       0.00000000
Si      -1.39162865      -1.37542987      -1.31189180       0.00000000
Si       2.56822604      -2.64109772      -0.03048808       0.00000000
Si      -0.11651260       2.72930807       2.63174844       0.00000000
Si       2.63011175       0.03995937      -2.75971084       0.00000000
Si       0.00286215      -2.66714543       2.74456891       0.00000000
Si      -2.73170922      -0.00982287      -2.68756058       0.00000000
Si      -2.72734350       2.69260670      -0.02156047       0.00000000
