10
Lattice="16.290000149 0.0 0.0 0.0 16.290000149 0.0 0.0 0.0 29.1751946751" Properties=species:S:1:pos:R:3:initial_magmoms:R:1 pbc="T T T"
Si      -0.65008504       0.42327936      -2.13220492       0.00000000
Si      -1.90858529      -0.78897358       1.12111812       0.00000000
Si       0.86315824       1.93603394       1.03613953       0.00000000
Si       1.70486255      -1.66801457      -0.12720852       0.00000000
H       -1.21391452      -2.61592967      -0.79991965       0.00000000
Si       2.17285796       0.67355893       2.51377270       0.00000000
Si      -0.65875132      -2.15902775       2.53488971       0.00000000
Si       3.43046226      -0.72171217       1.14384852       0.00000000
Si       0.83957032      -3.39497124       1.25576748       0.00000000
Si      -2.35076105       2.02140983      -2.14661746       0.00000000
