10
Lattice="16.290000149 0.0 0.0 0.0 16.290000149 0.0 0.0 0.0 29.1751946751" Properties=species:S:1:pos:R:3:initial_magmoms:R:1 pbc="T T T"
Si      -1.31468446       1.32277082       1.40167847       0.00000000
Si       0.98570791       1.78807838      -1.15406859       0.00000000
Si       1.38191329      -1.32534448       1.36578422       0.00000000
Si      -1.29569032      -1.28592512      -1.50537294       0.00000000
Si      -2.51967206       2.71830255      -0.03959366       0.00000000
Si       1.07121412       1.09510178      -3.38381785       0.00000000
Si      -2.63244773      -2.64933395      -0.09606516       0.00000000
Si      -0.64889587       3.52289824      -1.23831488       0.00000000
Si       0.11350872       2.72553531       2.64500273       0.00000000
Si       0.03235194      -2.72063528       2.67665781       0.00000000
