10
Lattice="16.290000149 0.0 0.0 0.0 16.290000149 0.0 0.0 0.0 29.1751946751" Properties=species:S:1:pos:R:3:initial_magmoms:R:1 pbc="T T T"
Si       1.25030638      -1.10590530       1.60521921       0.00000000
Si      -1.81091045      -1.32630086      -0.60357643       0.00000000
Si       1.22114728       1.32123304      -1.49318646       0.00000000
Si      -1.33004593       1.54758259       1.15880956       0.00000000
Si      -0.64244503      -1.12150298       2.94643209       0.00000000
H        3.09319410      -0.52455267      -0.77343441       0.00000000
Si      -0.19142379      -2.85628863      -1.67856565       0.00000000
Si       2.75657754       2.04196781       0.11737181       0.00000000
Si      -3.03210660       0.54578016      -1.55503788       0.00000000
Si      -2.54138663      -1.66918582       1.65922250       0.00000000
