10
Lattice="16.290000149 0.0 0.0 0.0 16.290000149 0.0 0.0 0.0 29.1751946751" Properties=species:S:1:pos:R:3:initial_magmoms:R:1 pbc="T T T"
Si      -1.34009686      -1.34846992       1.37278043       0.00000000
Si       1.32375799      -1.37072206      -1.37345146       0.00000000
Si      -1.35964486       1.32546844      -1.39139421       0.00000000
Si       1.34407162       1.32688567       1.40720716       0.00000000
Si       2.69962769       2.67434561       0.01397492       0.00000000
Si       2.62780508      -2.75126700       0.00148793       0.00000000
Si      -2.73307107       2.68441283      -0.07039974       0.00000000
Si      -2.73303848       0.00457749       2.68569337       0.00000000
Si       2.67760361      -0.02256165      -2.74710716       0.00000000
Si      -0.00579924       2.70032816      -2.73427007       0.00000000
