10
Lattice="16.290000149 0.0 0.0 0.0 16.290000149 0.0 0.0 0.0 29.1751946751" Properties=species:S:1:pos:R:3:initial_magmoms:R:1 pbc="T T T"
Si      -1.36945144       1.36181958      -1.31300046       0.00000000
Si      -1.38766366      -1.35993808       1.30346017       0.00000000
Si       1.32320413      -1.35135325      -1.38561752       0.00000000
Si       1.35542575       1.37164408       1.33812030       0.00000000
Si      -0.00547344      -2.70511742       2.63980079       0.00000000
Si      -0.02383227       2.69205284      -2.66059687       0.00000000
Si       2.67276548       0.04393755      -2.69649111       0.00000000
Si      -2.70575273       0.01112607       2.69205356       0.00000000
Si       2.73787662       0.01231524       2.66010672       0.00000000
Si      -2.67025682       0.02818170      -2.73195939       0.00000000
