10
Lattice="16.290000149 0.0 0.0 0.0 16.290000149 0.0 0.0 0.0 29.1751946751" Properties=species:S:1:pos:R:3:initial_magmoms:R:1 pbc="T T T"
Si       1.46945554      -1.29247810       1.27200931       0.00000000
Si      -1.39993003      -1.41694657      -1.25780099       0.00000000
Si      -1.23201271       1.42989386       1.41622230       0.00000000
Si       1.38289069       1.33736666      -1.38127042       0.00000000
Si       0.15716592      -2.62893887       2.63781688       0.00000000
Si      -2.58501125       2.74016373      -0.00997792       0.00000000
Si      -2.66108555      -0.02510126      -2.68855254       0.00000000
Si       0.02992473      -2.69903474      -2.66996794       0.00000000
Si       2.70112800       0.06774522       2.71787361       0.00000000
Si       2.76197278       2.69875455      -0.04714711       0.00000000
