10
Lattice="16.290000149 0.0 0.0 0.0 16.290000149 0.0 0.0 0.0 29.1751946751" Properties=species:S:1:pos:R:3:initial_magmoms:R:1 pbc="T T T"
Si       1.36042678      -1.35776174      -1.33867463       0.00000000
Si       1.37326330       1.34726446       1.34343019       0.00000000
Si      -1.34415307      -1.35549906       1.36574921       0.00000000
Si      -1.32983416       1.37034739      -1.37275126       0.00000000
Si       0.00213399       2.70389567       2.67632813       0.00000000
Si       2.70928766       0.01555695      -2.67597803       0.00000000
Si       0.04553055      -2.70394454       2.69899726       0.00000000
Si       0.00500103      -2.72940582      -2.67679494       0.00000000
Si      -2.68872968       2.72534960      -0.01803027       0.00000000
Si      -2.70075170      -2.71827974       0.01525863       0.00000000
