10
Lattice="16.290000149 0.0 0.0 0.0 16.290000149 0.0 0.0 0.0 29.1751946751" Properties=species:S:1:pos:R:3:initial_magmoms:R:1 pbc="T T T"
Si      -1.38245086       1.35932884      -1.32198642       0.00000000
Si      -1.37705887      -1.35537688       1.33216856       0.00000000
Si       1.34987086       1.37015191       1.35104492       0.00000000
Si       1.35027811      -1.37652130      -1.34911935       0.00000000
Si      -0.00777033      -2.69736338       2.68554749       0.00000000
Si      -0.03358998       2.73264753      -2.65928982       0.00000000
Si      -2.73787662      -0.01231524      -2.66010672       0.00000000
Si       2.72406269       0.02370195       2.68808574       0.00000000
Si      -2.69734709       0.01314603       2.71568547       0.00000000
Si       2.72995967      -0.03301983      -2.68438049       0.00000000
