10
Lattice="16.290000149 0.0 0.0 0.0 16.290000149 0.0 0.0 0.0 29.1751946751" Properties=species:S:1:pos:R:3:initial_magmoms:R:1 pbc="T T T"
Si      -1.32576166      -1.33811926      -1.33512109       0.00000000
Si       1.31529680      -1.43360798       1.28041177       0.00000000
Si      -1.44337546       1.32922492       1.28420454       0.00000000
Si       1.29822343       1.29047101      -1.47396585       0.00000000
Si       2.63157785      -0.05158391       2.64251408       0.00000000
Si      -0.07459191       2.67759710       2.62258742       0.00000000
Si      -2.74258442       0.00448464      -2.58987911       0.00000000
Si       2.66134457       2.68427600      -0.15448266       0.00000000
Si      -0.15169248       2.67774371      -2.70179808       0.00000000
Si      -0.08210160      -2.77104957       2.61363064       0.00000000
