10
Lattice="16.290000149 0.0 0.0 0.0 16.290000149 0.0 0.0 0.0 29.1751946751" Properties=species:S:1:pos:R:3:initial_magmoms:R:1 pbc="T T T"
Si      -1.37667850       1.15093738      -1.49890480       0.00000000
Si      -1.43902033      -1.20979315       1.39850420       0.00000000
Si       1.47110837      -1.25301052      -1.33327722       0.00000000
Si       1.25905981       1.47377260       1.37260538       0.00000000
H       -2.29569515       1.90317701      -0.54537191       0.00000000
Si       2.68867023       0.39257271      -2.55825612       0.00000000
Si      -0.03003306      -2.57062718       2.73073404       0.00000000
Si      -2.80747808      -2.52960896       0.00706040       0.00000000
Si       2.64546915       0.11945457       2.72797406       0.00000000
Si      -0.21279057       2.78086593      -2.68379698       0.00000000
