10
Lattice="16.290000149 0.0 0.0 0.0 16.290000149 0.0 0.0 0.0 29.1751946751" Properties=species:S:1:pos:R:3:initial_magmoms:R:1 pbc="T T T"
Si       1.34810503       1.34615674      -1.36767478       0.00000000
Si       1.35134674      -1.35812989       1.35970995       0.00000000
Si      -1.33020233       1.35115777       1.39019803       0.00000000
Si      -1.36328405      -1.32999706      -1.38030764       0.00000000
Si       2.67792290       2.69444747       0.04525073       0.00000000
Si      -2.70460266      -2.68183901       0.00557246       0.00000000
Si      -2.69922696       2.70920621       0.05093989       0.00000000
Si       2.69132957       0.00547344       2.72426298       0.00000000
Si      -2.67811512      -0.00239463       2.74795324       0.00000000
Si       2.69971892      -0.02187747      -2.72928111       0.00000000
