10
Lattice="16.290000149 0.0 0.0 0.0 16.290000149 0.0 0.0 0.0 29.1751946751" Properties=species:S:1:pos:R:3:initial_magmoms:R:1 pbc="T T T"
Si      -1.37611405      -1.32017419       1.36382365       0.00000000
Si      -1.37344249       1.35224920      -1.34541410       0.00000000
Si       1.29083590      -1.36780615      -1.41228365       0.00000000
Si       1.40854744       1.32548473       1.35641315       0.00000000
Si       0.04261464      -2.69333975       2.61739424       0.00000000
Si       0.04370607       2.69496875       2.70089365       0.00000000
Si      -0.00970884       2.70226667      -2.69532118       0.00000000
Si       2.67986792      -0.00824274      -2.72545916       0.00000000
Si       2.61040736      -2.80864038      -0.13613146       0.00000000
Si      -2.73254978      -2.70182684       0.01286626       0.00000000
