10
Lattice="16.290000149 0.0 0.0 0.0 16.290000149 0.0 0.0 0.0 29.1751946751" Properties=species:S:1:pos:R:3:initial_magmoms:R:1 pbc="T T T"
Si      -1.36878355      -1.34379469       1.34267163       0.00000000
Si      -1.38219022       1.34517934      -1.33634062       0.00000000
Si       1.34998489      -1.36480879      -1.35603387       0.00000000
Si       1.36629118       1.36205578       1.35247450       0.00000000
Si       0.00547344       2.70511742      -2.63980079       0.00000000
Si      -0.00228060      -2.70120782       2.67104742       0.00000000
Si       2.71336016      -0.00304623      -2.68589760       0.00000000
Si      -2.70876638      -2.70739802      -0.02188140       0.00000000
Si      -2.70027929       2.71624349       0.05225277       0.00000000
Si      -2.68714955       0.01907559       2.73336564       0.00000000
