10
Lattice="16.290000149 0.0 0.0 0.0 16.290000149 0.0 0.0 0.0 29.1751946751" Properties=species:S:1:pos:R:3:initial_magmoms:R:1 pbc="T T T"
Si       1.36650295      -1.35741313       1.32837579       0.00000000
Si       1.36878355       1.34379469      -1.34267163       0.00000000
Si      -1.33998283      -1.36360333      -1.36455303       0.00000000
Si      -1.31836600       1.36287028       1.39069400       0.00000000
Si      -0.01340667       2.68897403      -2.67901225       0.00000000
Si      -0.00928530      -2.68757309       2.68382616       0.00000000
Si       2.71533125       0.00430056       2.67635731       0.00000000
Si      -2.69905917      -2.71511948      -0.00224649       0.00000000
Si      -2.69132957      -0.00547344      -2.72426298       0.00000000
Si       2.71876844      -0.02101410      -2.69870551       0.00000000
