10
Lattice="16.290000149 0.0 0.0 0.0 16.290000149 0.0 0.0 0.0 29.1751946751" Properties=species:S:1:pos:R:3:initial_magmoms:R:1 pbc="T T T"
Si      -1.31529680       1.43360798      -1.28041177       0.00000000
Si       1.31628104       1.38202406       1.36210231       0.00000000
Si      -1.39739840      -1.33744159       1.33321887       0.00000000
Si       1.28299406      -1.34814412      -1.44989047       0.00000000
Si      -2.64105847       0.09548872      -2.61553286       0.00000000
Si       2.64993358      -2.70049106      -0.08539579       0.00000000
Si      -0.02837378      -2.69549003       2.67247701       0.00000000
Si       2.66166238       0.01886382       2.71612310       0.00000000
Si       2.69715829       0.03591945      -2.70788986       0.00000000
Si       2.63989894       2.76483657      -0.00186721       0.00000000
