10
Lattice="16.290000149 0.0 0.0 0.0 16.290000149 0.0 0.0 0.0 29.1751946751" Properties=species:S:1:pos:R:3:initial_magmoms:R:1 pbc="T T T"
Si      -1.45697761      -1.29844333       1.30273079       0.00000000
Si       1.37015191      -1.38728899      -1.31075397       0.00000000
Si      -1.36303318       1.32628294      -1.38036599       0.00000000
Si       1.38292327       1.35037585       1.34030844       0.00000000
Si      -0.05538600       2.72088614       2.57310629       0.00000000
Si      -0.21651039      -2.68809437       2.67524865       0.00000000
Si       2.72443736       2.68302818      -0.03270539       0.00000000
Si       2.72381834      -0.04005711      -2.68525574       0.00000000
Si       0.00974142      -2.73308736      -2.67831205       0.00000000
Si      -0.00930159       2.67753845      -2.74243912       0.00000000
