10
Lattice="16.290000149 0.0 0.0 0.0 16.290000149 0.0 0.0 0.0 29.1751946751" Properties=species:S:1:pos:R:3:initial_magmoms:R:1 pbc="T T T"
Si      -1.47102285       1.21380049       1.33318970       0.00000000
Si       1.17193193       1.53401302      -1.31924395       0.00000000
Si       1.43043794      -1.17449272       1.45873056       0.00000000
Si      -0.22749148      -1.84119356      -1.45522954       0.00000000
H       -2.96274704      -1.25105572      -1.43209361       0.00000000
Si       2.08575207      -2.02378817      -2.03540746       0.00000000
Si      -2.63491078      -0.41612805       2.51808188       0.00000000
Si       2.53323838       0.18329508      -2.64767809       0.00000000
Si       3.15154162      -1.93318319       0.07279211       0.00000000
Si      -0.01151377       2.59594184       2.68432214       0.00000000
