10
Lattice="16.290000149 0.0 0.0 0.0 16.290000149 0.0 0.0 0.0 29.1751946751" Properties=species:S:1:pos:R:3:initial_magmoms:R:1 pbc="T T T"
H        1.96845104      -0.09192447      -1.08047416       0.00000000
Si       1.03174345      -1.32761872       1.62502917       0.00000000
Si       0.75569311       1.87129748      -1.28691784       0.00000000
Si      -0.77333518      -2.03818853      -1.01246678       0.00000000
Si      -1.06951996       1.11211831       1.86715411       0.00000000
H       -1.22544784       1.24844932      -2.36677932       0.00000000
H       -3.01594692       0.03173292      -1.28776392       0.00000000
H       -1.87100426       1.67827727      -2.41124231       0.00000000
H        2.34211106      -0.76101994       2.53342803       0.00000000
Si      -1.01900467       3.42251274      -0.65544992       0.00000000
