10
Lattice="16.290000149 0.0 0.0 0.0 16.290000149 0.0 0.0 0.0 29.1751946751" Properties=species:S:1:pos:R:3:initial_magmoms:R:1 pbc="T T T"
Si      -1.37046468      -1.37227613      -1.33009713       0.00000000
Si       1.34742410       1.35367621      -1.37622311       0.00000000
Si       1.40590520      -1.33827890       1.33301464       0.00000000
Si      -1.39633320       1.33740250       1.34809822       0.00000000
Si      -0.01725111       2.69879039       2.68222152       0.00000000
Si       0.06897675      -2.68845927       2.70328601       0.00000000
Si      -2.70261202      -0.00569824      -2.70176890       0.00000000
Si      -2.70038029       2.71794743      -0.02684118       0.00000000
Si      -0.00078844      -2.71199832      -2.71069651       0.00000000
Si       2.70280099       2.72167784      -0.03845291       0.00000000
