10
Lattice="16.290000149 0.0 0.0 0.0 16.290000149 0.0 0.0 0.0 29.1751946751" Properties=species:S:1:pos:R:3:initial_magmoms:R:1 pbc="T T T"
Si      -0.43714215      -1.29246490       0.65702538       0.00000000
H        0.50938830      -1.54339606      -1.82835110       0.00000000
Si       1.55344699      -0.43976484      -2.03564086       0.00000000
Si       2.73525555      -0.59013784      -0.02313593       0.00000000
Si      -1.25077879      -0.30905388       2.60397365       0.00000000
Si      -2.31950054      -1.99930430      -0.61215393       0.00000000
Si       1.56757042      -2.65434149       0.53889502       0.00000000
Si      -2.75546982       1.00690120       1.31384654       0.00000000
Si      -1.84090034       2.84265390       0.14255000       0.00000000
Si       0.30001293       1.20902752      -3.18975321       0.00000000
