10
Lattice="16.290000149 0.0 0.0 0.0 16.290000149 0.0 0.0 0.0 29.1751946751" Properties=species:S:1:pos:R:3:initial_magmoms:R:1 pbc="T T T"
Si       1.35071794       1.38642562       1.32309508       0.00000000
Si      -1.33905593       1.35887923      -1.36297757       0.00000000
Si       1.38857590      -1.35058762      -1.33391908       0.00000000
Si      -1.35062020      -1.36523233       1.36402788       0.00000000
Si       2.66090636      -0.04101822       2.62019506       0.00000000
Si      -2.66668931       2.70827768       0.03223859       0.00000000
Si       0.04052952      -2.71233389      -2.68443884       0.00000000
Si      -2.69066819       0.00617391      -2.72472978       0.00000000
Si      -2.69304653      -2.72587088       0.00983204       0.00000000
Si       0.02002041       2.71039538      -2.72528411       0.00000000
