10
Lattice="10.86 0.0 0.0 0.0 10.86 0.0 0.0 0.0 10.86" Properties=species:S:1:pos:R:3:initial_magmoms:R:1 pbc="T T T"
Si      -1.30224432       1.30224432       1.34758482       0.00000000
Si       1.36958718      -1.36958718       1.30478556       0.00000000
Si      -1.34541282      -1.36958718      -1.41021444       0.00000000
Si       1.36958718       1.34541282      -1.41021444       0.00000000
Si       0.01208718      -2.72708718       2.66228556       0.00000000
Si       2.72708718      -0.01208718       2.66228556       0.00000000
Si      -2.70291282      -2.72708718      -0.05271444       0.00000000
Si       2.72708718       2.70291282      -0.05271444       0.00000000
Si      -2.71986528       2.71986528      -0.00100998       0.00000000
Si       2.72708718      -2.72708718      -0.05271444       0.00000000
