10
Lattice="16.28999089631971 0.0 0.0 0.0 16.28999089631971 0.0 0.0 0.0 34.33025523377368" Properties=species:S:1:pos:R:3:initial_magmoms:R:1 pbc="T T T"
Si      -0.05742225       0.47860020      -2.29607539       0.00000000
Si       1.94624775      -0.76453857       1.13191721       0.00000000
Si      -0.76163895       1.96001280       1.14166014       0.00000000
Si      -1.75270626      -1.84333568      -0.19719653       0.00000000
Si       0.60411465      -2.11313391       2.50856465       0.00000000
Si      -2.12955260       0.61884081       2.50427336       0.00000000
Si      -2.02002027       1.91330937      -2.21797402       0.00000000
Si      -0.74104839      -3.47901362       1.13597505       0.00000000
Si      -3.49056323      -0.75000789       1.10824992       0.00000000
Si      -0.04841388      -1.39315338      -3.67714800       0.00000000
