10
Lattice="16.28999089631971 0.0 0.0 0.0 16.28999089631971 0.0 0.0 0.0 34.33025523377368" Properties=species:S:1:pos:R:3:initial_magmoms:R:1 pbc="T T T"
Si      -1.54744967       1.76179608      -0.15572212       0.00000000
Si       0.96105787      -0.00544086       2.15274852       0.00000000
Si      -1.16064362      -2.09570850      -0.05575237       0.00000000
Si       1.54480676       0.76637934      -1.67662194       0.00000000
Si      -0.12762889       3.64974911      -0.24625106       0.00000000
Si       2.27453360      -1.98840627       2.07928173       0.00000000
Si      -3.29471507       1.38789171       1.44029233       0.00000000
Si       2.34857165       1.85178204       2.45207418       0.00000000
Si       0.95615458       3.08222343      -2.17770663       0.00000000
Si      -2.59222511       1.94264766      -2.23953545       0.00000000
