10
Lattice="16.28999089631971 0.0 0.0 0.0 16.28999089631971 0.0 0.0 0.0 34.33025523377368" Properties=species:S:1:pos:R:3:initial_magmoms:R:1 pbc="T T T"
Si      -0.39754005       2.27221947       0.14713956       0.00000000
Si       1.76343337      -1.30030038       0.78976796       0.00000000
Si      -1.54800501      -0.72213570       1.66731844       0.00000000
Si      -0.02345649      -0.63662949      -2.37366383       0.00000000
Si       0.65427822      -3.31978797       0.12667871       0.00000000
Si      -2.34287556       2.22801166      -1.19743997       0.00000000
Si      -2.12201574       0.42723783      -2.76976654       0.00000000
Si       3.41458777      -0.57985884      -0.73017061       0.00000000
Si      -1.26613914      -3.07327140       1.51901165       0.00000000
Si       1.48024801       3.24507130      -0.87737882       0.00000000
