10
Lattice="16.28999089631971 0.0 0.0 0.0 16.28999089631971 0.0 0.0 0.0 34.33025523377368" Properties=species:S:1:pos:R:3:initial_magmoms:R:1 pbc="T T T"
Si      -1.76343337       1.30030038      -0.78976796       0.00000000
Si       1.65115440       0.72044154      -1.51993857       0.00000000
Si      -1.10915515      -2.01948759      -0.66308925       0.00000000
Si       0.41951637      -0.02256165       2.36422301       0.00000000
Si      -3.31143839       0.57816468       0.87755047       0.00000000
Si      -3.02957252      -1.77297102       0.72924369       0.00000000
Si      -1.78688987       0.66367089      -3.16343180       0.00000000
Si       0.50507145      -3.69869337      -0.32703019       0.00000000
Si      -1.63581362      -1.70326611      -2.96538044       0.00000000
Si       2.08121040      -1.61293806       2.73859465       0.00000000
