10
Lattice="16.28999089631971 0.0 0.0 0.0 16.28999089631971 0.0 0.0 0.0 34.33025523377368" Properties=species:S:1:pos:R:3:initial_magmoms:R:1 pbc="T T T"
Si      -1.34213310      -1.34859534       1.37664744       0.00000000
Si       1.35734796       1.37938833       1.36490648       0.00000000
Si      -1.94624775       0.76453857      -1.13191721       0.00000000
Si       1.42079751      -1.25777696      -1.45878605       0.00000000
Si       2.45599443       0.35873838      -2.81986612       0.00000000
Si       2.71977840      -2.67930494       0.00229670       0.00000000
Si      -2.68729614      -2.71447505       0.00405784       0.00000000
Si       0.00615762      -2.69822383       2.73097676       0.00000000
Si      -2.70788670       2.72455137       0.00974293       0.00000000
Si      -2.70726768       0.01682757       2.72627352       0.00000000
