10
Lattice="16.28999089631971 0.0 0.0 0.0 16.28999089631971 0.0 0.0 0.0 34.33025523377368" Properties=species:S:1:pos:R:3:initial_magmoms:R:1 pbc="T T T"
Si      -1.35633798      -1.35630738      -1.35556522       0.00000000
Si      -1.35646830       1.35762000       1.35690410       0.00000000
Si       1.35860229      -1.35733557       1.35693843       0.00000000
Si       1.36036161       1.35467151      -1.36023413       0.00000000
Si      -2.70462870      -0.00667890      -2.70989454       0.00000000
Si      -2.71355562       0.00089595       2.71332757       0.00000000
Si      -2.71283886      -2.71454509       0.00003433       0.00000000
Si       2.71608057       0.00189941      -2.71195436       0.00000000
Si       0.00236205      -2.71478944       2.71353355       0.00000000
Si      -2.71381626       2.71513086      -0.00092692       0.00000000
