10
Lattice="16.28999089631971 0.0 0.0 0.0 16.28999089631971 0.0 0.0 0.0 34.33025523377368" Properties=species:S:1:pos:R:3:initial_magmoms:R:1 pbc="T T T"
Si       1.09087614       1.17289629       1.68194313       0.00000000
Si      -0.65150226      -2.22968465       0.46658276       0.00000000
Si       1.50724854      -0.55829740      -1.78877895       0.00000000
Si      -1.91831040       1.41278283      -0.46284076       0.00000000
Si      -3.58656930      -0.00697212       0.55295773       0.00000000
Si       2.94958143      -0.21517461       2.23397395       0.00000000
Si      -2.71777473      -2.01354893       1.52422985       0.00000000
Si       0.03438819      -1.73182688      -3.35094376       0.00000000
Si      -0.43403076       1.24010883       3.57560107       0.00000000
Si       2.38966155       2.96355825       0.63356521       0.00000000
