10
Lattice="16.28999089631971 0.0 0.0 0.0 16.28999089631971 0.0 0.0 0.0 34.33025523377368" Properties=species:S:1:pos:R:3:initial_magmoms:R:1 pbc="T T T"
Si       1.35081567      -1.34711784       1.36160734       0.00000000
Si      -1.36345671      -1.35508365      -1.35852792       0.00000000
Si      -1.36469475       1.36710567       1.35820865       0.00000000
Si       1.36673100       1.37011932      -1.38757820       0.00000000
Si      -2.50561866       0.13546764      -2.78875805       0.00000000
Si       2.70177795      -2.70024669      -0.00336437       0.00000000
Si      -0.00689067      -2.70642060       2.71734421       0.00000000
Si       2.70861975       0.00830790       2.71734421       0.00000000
Si      -2.73137036      -2.69625564       0.00408530       0.00000000
Si       2.71000440       2.71849149       0.00181950       0.00000000
