10
Lattice="16.28999089631971 0.0 0.0 0.0 16.28999089631971 0.0 0.0 0.0 34.33025523377368" Properties=species:S:1:pos:R:3:initial_magmoms:R:1 pbc="T T T"
Si      -1.35081567       1.34711784      -1.36160734       0.00000000
Si       1.35780408       1.35542574       1.35573687       0.00000000
Si       1.35096228      -1.35312885      -1.36497171       0.00000000
Si      -1.35770634      -1.35930276       1.35573687       0.00000000
Si      -0.00050499       2.71375110       2.71363654       0.00000000
Si       2.71480995      -0.00184077       2.71343056       0.00000000
Si      -2.71365336      -2.71568961      -0.00360468       0.00000000
Si      -2.71560816      -0.00144981       2.71411717       0.00000000
Si      -2.71551042       2.71422351      -0.00339870       0.00000000
Si      -0.00035838      -2.71681362       2.71356788       0.00000000
