10
Lattice="16.28999089631971 0.0 0.0 0.0 16.28999089631971 0.0 0.0 0.0 34.33025523377368" Properties=species:S:1:pos:R:3:initial_magmoms:R:1 pbc="T T T"
Si      -1.56813079      -1.17981549       1.27839076       0.00000000
Si       1.18789938      -1.51740945      -1.35721307       0.00000000
Si      -1.52780815       1.22088158      -1.35333375       0.00000000
Si       1.40799357       1.35400020       1.47208217       0.00000000
Si      -1.35970675       0.95152806       3.12494756       0.00000000
Si      -3.29019623       0.54282662       1.45598127       0.00000000
Si       2.53992051      -0.15704348      -2.72620142       0.00000000
Si      -0.17795196       2.56014764      -2.72760896       0.00000000
Si      -2.86491758       2.56299839       0.20975798       0.00000000
Si       2.62752813      -2.82966669       0.05475679       0.00000000
