10
Lattice="16.28999089631971 0.0 0.0 0.0 16.28999089631971 0.0 0.0 0.0 34.33025523377368" Properties=species:S:1:pos:R:3:initial_magmoms:R:1 pbc="T T T"
Si      -1.60740598      -0.20860974      -1.72705312       0.00000000
Si      -0.73566780       0.91914696       2.07351424       0.00000000
Si       0.86879457      -2.00657681       0.97127212       0.00000000
Si       1.66825890       1.41975495      -1.01579849       0.00000000
Si       1.27430154       3.27629367       0.55268309       0.00000000
Si       3.58656930       0.00697212      -0.55295773       0.00000000
Si       2.93506704      -2.22271253      -0.08637497       0.00000000
Si       1.04490576       2.38542615       2.69379364       0.00000000
Si      -0.52362250      -0.77613542      -3.65850868       0.00000000
Si      -2.92267754       1.75604571       1.91545766       0.00000000
