10
Lattice="16.28999089631971 0.0 0.0 0.0 16.28999089631971 0.0 0.0 0.0 34.33025523377368" Properties=species:S:1:pos:R:3:initial_magmoms:R:1 pbc="T T T"
Si       1.80758727       0.31672647       1.46590272       0.00000000
Si      -1.23272946      -2.02399992      -0.16650183       0.00000000
Si       1.48755393       0.05475069      -1.85915601       0.00000000
Si      -1.75549185       1.65014442      -0.11071514       0.00000000
Si       0.57611214       1.14241770       3.28571623       0.00000000
Si       0.51463368      -1.60318035      -3.21530484       0.00000000
Si      -2.48684769       1.62206046      -2.36724407       0.00000000
Si       2.79490788      -1.84005324       1.80443355       0.00000000
Si      -0.91070874       3.70781577       0.69838077       0.00000000
Si      -2.99760435      -2.06508330       1.42209729       0.00000000
