10
Lattice="16.28999089631971 0.0 0.0 0.0 16.28999089631971 0.0 0.0 0.0 34.33025523377368" Properties=species:S:1:pos:R:3:initial_magmoms:R:1 pbc="T T T"
Si       1.35653346      -1.34983827       1.35903257       0.00000000
Si       1.36104579       1.35703845      -1.35242743       0.00000000
Si      -1.35687555       1.36414089       1.35879226       0.00000000
Si      -1.34327340      -1.34837217      -1.38939770       0.00000000
Si      -2.56705965       0.19958508      -2.72990909       0.00000000
Si       0.35505684      -2.45970855      -2.87794810       0.00000000
Si       2.71059084      -2.71438641       0.00030897       0.00000000
Si      -0.00138465      -2.71018359       2.71552471       0.00000000
Si      -2.71000440      -2.71849149      -0.00181950       0.00000000
Si       2.71327869       0.00504990       2.71621131       0.00000000
