10
Lattice="16.28999089631971 0.0 0.0 0.0 16.28999089631971 0.0 0.0 0.0 34.33025523377368" Properties=species:S:1:pos:R:3:initial_magmoms:R:1 pbc="T T T"
Si      -1.58154723      -0.83227239       1.50400932       0.00000000
Si       1.15427682       1.44396189       1.48485303       0.00000000
Si      -1.31891985       1.38702834      -1.40925776       0.00000000
Si       1.38580659      -1.32511005      -1.40771290       0.00000000
Si      -2.65831623      -2.51190171       0.16756607       0.00000000
Si       2.59643052       2.66128101       0.00281508       0.00000000
Si      -3.34166544       0.98267796       1.38848795       0.00000000
Si      -2.59682148       2.78040978       0.01150064       0.00000000
Si       2.77246026      -2.61071685      -0.02149075       0.00000000
Si       0.02749752      -2.68965819      -2.76907993       0.00000000
