10
Lattice="16.28999089631971 0.0 0.0 0.0 16.28999089631971 0.0 0.0 0.0 34.33025523377368" Properties=species:S:1:pos:R:3:initial_magmoms:R:1 pbc="T T T"
Si       1.58154723       0.83227239      -1.50400932       0.00000000
Si      -1.07676900      -1.67962932      -1.33644325       0.00000000
Si      -1.76011821       1.81495035      -0.11552137       0.00000000
Si       1.27812969       0.12823488       2.32982407       0.00000000
Si       2.73582405       2.27623428      -0.01915629       0.00000000
Si       0.26262738       2.21930073      -2.91326709       0.00000000
Si      -1.33056720       2.81878902       2.14945281       0.00000000
Si       2.67651216      -2.69856882      -0.03872455       0.00000000
Si      -2.45744424      -0.49304943      -2.89589597       0.00000000
Si      -2.91103929      -2.53470771       0.05619866       0.00000000
