10
Lattice="16.28999089631971 0.0 0.0 0.0 16.28999089631971 0.0 0.0 0.0 34.33025523377368" Properties=species:S:1:pos:R:3:initial_magmoms:R:1 pbc="T T T"
Si       1.95364341      -1.34135118       0.24556445       0.00000000
Si      -1.41701823       0.79260624       1.82472275       0.00000000
Si       0.93654468       1.28814804      -1.86049489       0.00000000
Si      -1.53616329      -1.45774323      -1.31443755       0.00000000
Si       0.18407700       3.49967844      -1.24059313       0.00000000
Si      -2.74884790      -1.06103286       2.28406182       0.00000000
Si      -3.51901956      -1.24295958       0.05098046       0.00000000
Si       1.19878110      -3.55607442       0.18122952       0.00000000
Si       1.87354548       1.06886835       3.11451116       0.00000000
Si       2.97764910      -0.82311741       2.29072189       0.00000000
