10
Lattice="16.28999089631971 0.0 0.0 0.0 16.28999089631971 0.0 0.0 0.0 34.33025523377368" Properties=species:S:1:pos:R:3:initial_magmoms:R:1 pbc="T T T"
Si      -0.75486231      -2.21472324      -0.06433493       0.00000000
Si       1.02400569       0.51823377       2.04515744       0.00000000
Si      -1.95364341       1.34135118      -0.24556445       0.00000000
Si       1.59159816      -0.06105492      -1.92568808       0.00000000
Si      -1.01709873       2.62949922      -2.10605934       0.00000000
Si       3.00104154      -1.73224602      -0.69439846       0.00000000
Si       1.28190897      -3.43723887      -0.35672588       0.00000000
Si      -0.08009793       2.41021953       2.86894670       0.00000000
Si      -3.48980670      -0.11639205      -1.56000200       0.00000000
Si      -2.59125030      -2.37027645      -1.69467967       0.00000000
