10
Lattice="16.28999089631971 0.0 0.0 0.0 16.28999089631971 0.0 0.0 0.0 34.33025523377368" Properties=species:S:1:pos:R:3:initial_magmoms:R:1 pbc="T T T"
Si      -1.16965458      -1.30064247      -1.51602290       0.00000000
Si       1.17944487      -1.45181367       1.47488352       0.00000000
Si      -1.51062057       1.23222447       1.47110719       0.00000000
Si       1.71403380       1.02719853      -1.60363376       0.00000000
Si       2.59747308       2.68892255       0.00826330       0.00000000
Si       2.63635731      -2.73264750       0.19650649       0.00000000
Si       2.53804716      -0.11122812       2.83665908       0.00000000
Si      -2.52227844       2.86790241       0.13793561       0.00000000
Si       0.40845546      -2.44218051      -2.95106270       0.00000000
Si      -0.16545753       2.59810417       2.84369679       0.00000000
