10
Lattice="16.28999089631971 0.0 0.0 0.0 16.28999089631971 0.0 0.0 0.0 34.33025523377368" Properties=species:S:1:pos:R:3:initial_magmoms:R:1 pbc="T T T"
Si       1.52388063       0.64332372       1.63473901       0.00000000
Si      -1.78647543       1.48277023      -0.36369493       0.00000000
Si       1.30000716      -0.04018743      -2.00540298       0.00000000
Si      -1.24636419      -1.91901087       0.72666892       0.00000000
Si       0.12057858      -3.42956628      -0.40581817       0.00000000
Si      -0.01500309      -1.16683641      -3.60776854       0.00000000
Si      -3.36111570      -1.82812896      -0.29582397       0.00000000
Si      -2.64614760       2.19684401       1.73014284       0.00000000
Si       3.51818388       1.44167056       0.64558081       0.00000000
Si       2.41878807      -3.02309820      -0.24872284       0.00000000
