10
Lattice="16.28999089631971 0.0 0.0 0.0 16.28999089631971 0.0 0.0 0.0 34.33025523377368" Properties=species:S:1:pos:R:3:initial_magmoms:R:1 pbc="T T T"
Si      -1.31501025      -1.12664898      -1.60236556       0.00000000
Si       0.51816861       2.17661183      -0.79028292       0.00000000
Si      -1.30000716       0.04018743       2.00540298       0.00000000
Si       1.89224640      -1.50532632       0.06320204       0.00000000
Si       0.32972589      -1.52629155      -3.27795759       0.00000000
Si       1.11878091      -2.98291077       1.75668014       0.00000000
Si       1.68306651       3.11843447       0.98428330       0.00000000
Si       0.22387347       0.68351115       3.64014199       0.00000000
Si       2.21817672       1.48185799       2.65098379       0.00000000
Si      -1.93266189      -3.18568869      -0.58303105       0.00000000
