10
Lattice="16.28999089631971 0.0 0.0 0.0 16.28999089631971 0.0 0.0 0.0 34.33025523377368" Properties=species:S:1:pos:R:3:initial_magmoms:R:1 pbc="T T T"
Si      -0.98763012      -1.61569107      -1.38989549       0.00000000
Si       2.09539899       0.30025728      -1.03014854       0.00000000
Si      -0.63987120       2.24009396       0.35954096       0.00000000
Si       0.01793529      -1.11708675       2.12202292       0.00000000
Si       1.71118305       1.95232296      -2.64459836       0.00000000
Si       3.37134582       1.38289068       0.71214721       0.00000000
Si       0.82075536       3.48349337      -1.12682260       0.00000000
Si      -1.05906177      -0.61001163      -3.55266845       0.00000000
Si       0.72399276      -3.09637062      -2.01106748       0.00000000
Si       1.59547518      -3.02182758       1.64122743       0.00000000
