10
Lattice="16.28999089631971 0.0 0.0 0.0 16.28999089631971 0.0 0.0 0.0 34.33025523377368" Properties=species:S:1:pos:R:3:initial_magmoms:R:1 pbc="T T T"
Si      -1.35571896       1.35277210       1.35172022       0.00000000
Si       1.34004798       1.35032860      -1.37835708       0.00000000
Si       1.35731538      -1.35918289       1.35391736       0.00000000
Si      -1.35879777      -1.33928791      -1.37229093       0.00000000
Si       0.09260865      -2.64708169      -2.66581447       0.00000000
Si       2.50400106      -0.14656927      -2.80579273       0.00000000
Si      -0.00078192       2.71442062       2.71130208       0.00000000
Si       2.71469592      -0.00170230       2.71126775       0.00000000
Si      -2.71608057      -0.00189941       2.71195436       0.00000000
Si       0.00014661      -2.71668886       2.71185137       0.00000000
