10
Lattice="16.28999089631971 0.0 0.0 0.0 16.28999089631971 0.0 0.0 0.0 34.33025523377368" Properties=species:S:1:pos:R:3:initial_magmoms:R:1 pbc="T T T"
Si      -0.99171891      -1.39431160      -1.63624954       0.00000000
Si       0.30017583       1.97607474      -1.27121573       0.00000000
Si      -1.87717815       0.41912541       1.44060131       0.00000000
Si       1.93306914      -0.79646534       1.25779259       0.00000000
Si       0.93874383      -2.79046790       2.03118502       0.00000000
Si       0.81360405      -2.90506805      -1.95435386       0.00000000
Si       2.15948385       2.90564730      -0.36290533       0.00000000
Si      -1.52682912       0.24226488      -3.30295003       0.00000000
Si      -2.19602232       2.69505018       1.32937122       0.00000000
Si      -1.72805949       3.20380317      -0.91311664       0.00000000
