10
Lattice="16.28999089631971 0.0 0.0 0.0 16.28999089631971 0.0 0.0 0.0 34.33025523377368" Properties=species:S:1:pos:R:3:initial_magmoms:R:1 pbc="T T T"
Si      -1.35588186      -1.35625653       1.35772802       0.00000000
Si       1.35659862      -1.35627282      -1.35741905       0.00000000
Si      -1.35700587       1.35726651      -1.35769369       0.00000000
Si       1.35819504       1.35646830       1.35841463       0.00000000
Si       2.71437012      -0.00151497       2.71209168       0.00000000
Si      -2.71480995       0.00184077      -2.71343056       0.00000000
Si       2.71520091       0.00052128      -2.71418583       0.00000000
Si       2.71507059       2.71480995      -0.00020598       0.00000000
Si      -2.71516833      -2.71497285       0.00013732       0.00000000
Si       2.71534752      -2.71531494       0.00006866       0.00000000
