10
Lattice="16.28999089631971 0.0 0.0 0.0 16.28999089631971 0.0 0.0 0.0 34.33025523377368" Properties=species:S:1:pos:R:3:initial_magmoms:R:1 pbc="T T T"
Si       1.34320824       1.35260757       1.36521202       0.00000000
Si      -1.34962650      -1.34441370       1.37022424       0.00000000
Si       1.35837423      -1.35355239      -1.35398602       0.00000000
Si      -1.35617508       1.35798327      -1.35367705       0.00000000
Si      -2.53899198       0.21686877       2.72946280       0.00000000
Si       0.00097740      -2.71379997      -2.71202302       0.00000000
Si      -2.71437012       0.00151497      -2.71209168       0.00000000
Si       2.71588509       0.00120546      -2.71167972       0.00000000
Si       0.00070047       2.71632492      -2.71229766       0.00000000
Si       2.71523349      -2.71412577       0.00635110       0.00000000
