10
Lattice="16.28999089631971 0.0 0.0 0.0 16.28999089631971 0.0 0.0 0.0 34.33025523377368" Properties=species:S:1:pos:R:3:initial_magmoms:R:1 pbc="T T T"
Si       1.34962650       1.34441370      -1.37022424       0.00000000
Si      -1.36752921      -1.37065689      -1.36582997       0.00000000
Si       1.30347693      -1.31276223       1.49546108       0.00000000
Si      -1.18936548       1.56128247       1.35923856       0.00000000
Si       2.69283474       2.69702127      -0.00501222       0.00000000
Si      -0.22903740      -2.29457682       3.04152499       0.00000000
Si       2.70045846      -2.71790668       0.01610090       0.00000000
Si      -2.46378105       0.19591983       2.92971129       0.00000000
Si      -0.00654858       2.70239697      -2.72390129       0.00000000
Si       2.70800073      -0.00913869      -2.72421027       0.00000000
