10
Lattice="16.28999089631971 0.0 0.0 0.0 16.28999089631971 0.0 0.0 0.0 34.33025523377368" Properties=species:S:1:pos:R:3:initial_magmoms:R:1 pbc="T T T"
Si      -2.20768596      -0.20360871       0.69848376       0.00000000
Si       1.08748782       1.09980306       1.74799458       0.00000000
Si       1.28871819      -1.86173523      -0.64183881       0.00000000
Si      -0.08892711       1.43298243      -1.95507480       0.00000000
Si       3.11572314      -0.12792537       1.38989549       0.00000000
Si       3.29092209      -0.63109089      -0.92070363       0.00000000
Si      -3.25979190      -1.34827443      -1.07477790       0.00000000
Si       0.12382029      -2.80355787      -2.41640503       0.00000000
Si      -1.73488500      -1.41548697      -2.96843584       0.00000000
Si       0.24501789       3.29973498       1.70079046       0.00000000
