10
Lattice="16.28999089631971 0.0 0.0 0.0 16.28999089631971 0.0 0.0 0.0 34.33025523377368" Properties=species:S:1:pos:R:3:initial_magmoms:R:1 pbc="T T T"
Si       0.00900837      -1.87175358      -1.38107261       0.00000000
Si       0.05742225      -0.47860020       2.29607539       0.00000000
Si       1.73395647       1.32669018      -0.92437697       0.00000000
Si      -1.96259802       1.43470917       0.07810137       0.00000000
Si      -1.69528401      -2.32193587       2.09887886       0.00000000
Si      -1.45953513       2.77404039      -1.85438410       0.00000000
Si      -1.84405895      -3.13936645      -0.40077162       0.00000000
Si       0.70516152       3.43152108      -1.07738700       0.00000000
Si      -0.70421670       1.48141260       3.43773554       0.00000000
Si      -0.41521581      -1.33219620      -3.69730189       0.00000000
