10
Lattice="16.28999089631971 0.0 0.0 0.0 16.28999089631971 0.0 0.0 0.0 34.33025523377368" Properties=species:S:1:pos:R:3:initial_magmoms:R:1 pbc="T T T"
Si      -0.69843375       0.33800121       2.22120309       0.00000000
Si      -0.52984854      -2.31241437       0.17000352       0.00000000
Si       1.53393156      -0.25752861      -1.88627693       0.00000000
Si      -1.96768539       1.82348631       0.69096543       0.00000000
Si      -1.52876763      -2.10608523      -1.91398146       0.00000000
Si      -2.51608824       0.05069448      -2.25251230       0.00000000
Si       1.66460994      -3.12144093       0.21772260       0.00000000
Si      -0.89515179       3.27246552      -1.06217869       0.00000000
Si      -1.02866463       1.80960723      -2.99679264       0.00000000
Si       1.90083123      -2.53633671      -2.14296439       0.00000000
