10
Lattice="16.28999089631971 0.0 0.0 0.0 16.28999089631971 0.0 0.0 0.0 34.33025523377368" Properties=species:S:1:pos:R:3:initial_magmoms:R:1 pbc="T T T"
Si      -1.35540293      -1.35698958       1.35608017       0.00000000
Si      -1.35790834       1.35653346      -1.35769369       0.00000000
Si       1.35790182      -1.35785295      -1.35838030       0.00000000
Si       1.35988920       1.35868374       1.35563388       0.00000000
Si      -2.71406507       0.00071676      -2.71185137       0.00000000
Si       2.71023246       0.00019548       2.71741287       0.00000000
Si      -0.00236205      -2.71427238       2.71459779       0.00000000
Si      -2.71432394       2.71454931       0.00010299       0.00000000
Si      -2.71263921      -0.00187335       2.71624564       0.00000000
Si       2.71560816       0.00144981      -2.71411717       0.00000000
