10
Lattice="16.28999089631971 0.0 0.0 0.0 16.28999089631971 0.0 0.0 0.0 34.33025523377368" Properties=species:S:1:pos:R:3:initial_magmoms:R:1 pbc="T T T"
Si       1.57319046      -1.68143751       0.43850060       0.00000000
Si       1.22352561       1.94326668       0.56682716       0.00000000
Si      -0.50819913       0.21468591      -2.33487062       0.00000000
Si      -1.69047846      -0.07304436       1.79791080       0.00000000
Si       0.45978525       2.33175060      -2.72139518       0.00000000
Si       0.19095138       3.58132392      -0.72914070       0.00000000
Si       0.77457321      -3.66656949      -0.40262546       0.00000000
Si       3.19956777       2.05084584      -0.66913138       0.00000000
Si      -2.09750040       2.49279354       2.12768742       0.00000000
Si       3.48682563      -1.51757640      -0.93138034       0.00000000
