10
Lattice="16.28999089631971 0.0 0.0 0.0 16.28999089631971 0.0 0.0 0.0 34.33025523377368" Properties=species:S:1:pos:R:3:initial_magmoms:R:1 pbc="T T T"
Si       2.24114562      -0.31563504       0.59837668       0.00000000
Si      -0.08956242      -0.01760949      -2.35763160       0.00000000
Si      -0.60025392       1.99674675       1.14028006       0.00000000
Si      -1.97166015      -1.39988115       0.15936113       0.00000000
Si      -2.38777191      -0.42407757      -2.51472693       0.00000000
Si      -1.23369057      -2.78819640       1.87704208       0.00000000
Si       3.20913000       1.80142965       0.21185212       0.00000000
Si      -3.68328303       0.08079840       0.78053312       0.00000000
Si      -0.98446986       3.64881243      -0.47416975       0.00000000
Si      -2.69565291       1.69648947       2.17042861       0.00000000
