10
Lattice="16.28999089631971 0.0 0.0 0.0 16.28999089631971 0.0 0.0 0.0 34.33025523377368" Properties=species:S:1:pos:R:3:initial_magmoms:R:1 pbc="T T T"
Si       1.36200690      -1.30020950      -1.36564802       0.00000000
Si       1.36184400       1.34035293       1.36435377       0.00000000
Si      -1.35187452      -1.37647928       1.36675689       0.00000000
Si      -1.56297663       1.19653992      -1.43508786       0.00000000
Si      -0.44538489      -1.96186043      -2.66183216       0.00000000
Si       2.70762606       2.69765691      -0.02755005       0.00000000
Si      -2.72692971       2.69343780      -0.00765222       0.00000000
Si       0.00742824       2.69913930       2.72472522       0.00000000
Si      -2.68436394      -2.74257497       0.00422949       0.00000000
Si      -2.70966231      -0.01607370       2.72462223       0.00000000
