10
Lattice="16.28999089631971 0.0 0.0 0.0 16.28999089631971 0.0 0.0 0.0 34.33025523377368" Properties=species:S:1:pos:R:3:initial_magmoms:R:1 pbc="T T T"
Si      -0.60183405      -1.94141939       1.14351947       0.00000000
Si      -1.27066887       1.99932057      -0.03831980       0.00000000
Si       2.02253382       0.78635088       1.06810959       0.00000000
Si      -1.02956058      -0.27715806      -2.61629927       0.00000000
Si      -1.76578713      -0.44452152       2.57095511       0.00000000
Si      -3.09332439       0.98482824       1.14229388       0.00000000
Si       2.86251138       1.59298281      -1.14476638       0.00000000
Si       0.96466122       2.30039235       2.56841124       0.00000000
Si      -1.86821865       1.95010848      -2.40870410       0.00000000
Si      -1.49511249      -3.70658492      -0.34984888       0.00000000
