10
Lattice="16.28999089631971 0.0 0.0 0.0 16.28999089631971 0.0 0.0 0.0 34.33025523377368" Properties=species:S:1:pos:R:3:initial_magmoms:R:1 pbc="T T T"
Si       1.36440153       1.34819461      -1.37997404       0.00000000
Si      -1.34799750      -1.36737187      -1.38072931       0.00000000
Si       1.25382501      -1.46672458       1.36813010       0.00000000
Si      -1.39698153       1.40514445       1.47936019       0.00000000
Si      -0.33993972      -2.60350594       2.71466645       0.00000000
Si      -2.70045846       2.71790668      -0.01610090       0.00000000
Si       2.73639420       2.69097931      -0.01277086       0.00000000
Si      -2.70850572      -2.72082652      -0.01929361       0.00000000
Si      -2.70687672      -0.00817758      -2.74072313       0.00000000
Si       0.00754227       2.70876799      -2.74031116       0.00000000
