10
Lattice="16.28999089631971 0.0 0.0 0.0 16.28999089631971 0.0 0.0 0.0 34.33025523377368" Properties=species:S:1:pos:R:3:initial_magmoms:R:1 pbc="T T T"
Si      -0.32257458       2.30043307      -0.33877115       0.00000000
Si       0.62335870      -0.88694163      -2.23469488       0.00000000
Si       2.04846003      -0.12047921       1.42027778       0.00000000
Si      -1.33392294      -2.63894646       0.65097066       0.00000000
Si       2.54186621      -2.31922263       0.42919709       0.00000000
Si      -2.43037026       2.15665753      -1.57617156       0.00000000
Si       1.40655909       2.79959125      -2.13805516       0.00000000
Si      -0.58828077      -2.86953141      -2.56182807       0.00000000
Si       0.72725795      -3.85836699       0.36482783       0.00000000
Si       2.81653190      -1.89190335      -2.19246865       0.00000000
