10
Lattice="16.28999089631971 0.0 0.0 0.0 16.28999089631971 0.0 0.0 0.0 34.33025523377368" Properties=species:S:1:pos:R:3:initial_magmoms:R:1 pbc="T T T"
Si      -1.35552348       1.35022923       1.32610984       0.00000000
Si      -1.37199267      -1.34278470      -1.36720318       0.00000000
Si       1.34533730       1.37137365      -1.36871371       0.00000000
Si       1.36864884      -1.33817463       1.56700538       0.00000000
Si       2.70575827      -2.68029144       0.00391365       0.00000000
Si      -0.01327635      -2.69893209      -2.72850155       0.00000000
Si      -2.73639420      -2.69097931       0.01277086       0.00000000
Si       2.70003885       2.72911257       0.00837659       0.00000000
Si       2.70257357       0.01625742      -2.72887918       0.00000000
Si      -2.52617175      -0.07781733       2.90616072       0.00000000
