10
Lattice="16.28999089631971 0.0 0.0 0.0 16.28999089631971 0.0 0.0 0.0 34.33025523377368" Properties=species:S:1:pos:R:3:initial_magmoms:R:1 pbc="T T T"
Si       0.62788176       1.87698267      -1.31224041       0.00000000
Si      -1.30634397      -1.11355182      -1.66117332       0.00000000
Si      -1.11687498       0.06167394       2.12985022       0.00000000
Si       2.16080334      -1.07126298      -0.03570349       0.00000000
Si       0.58956768       1.10641680       3.35815311       0.00000000
Si      -0.16651638      -3.16921950      -1.72104532       0.00000000
Si       2.76286545       2.34333279      -0.52199182       0.00000000
Si       1.70194662       2.64435570       1.91322619       0.00000000
Si       2.22928650      -2.26031895       1.94721317       0.00000000
Si       2.08984410      -2.42621631      -1.95775256       0.00000000
