10
Lattice="16.28999089631971 0.0 0.0 0.0 16.28999089631971 0.0 0.0 0.0 34.33025523377368" Properties=species:S:1:pos:R:3:initial_magmoms:R:1 pbc="T T T"
Si      -2.17127781       0.57244689       0.61234910       0.00000000
Si       1.12865265       1.76611293       1.02146299       0.00000000
Si       0.29395305       0.16371450      -2.30850497       0.00000000
Si       0.23973993      -2.03668983       1.13125120       0.00000000
Si      -0.34316514       3.50969679       0.41210061       0.00000000
Si       0.06753834      -3.53839814      -0.68780705       0.00000000
Si      -1.56535497      -0.76585806      -3.21681537       0.00000000
Si       3.10870215       2.07378216      -0.22530959       0.00000000
Si      -2.40749910      -0.01265733       2.97303609       0.00000000
Si       2.34753561      -1.89291429       2.36865161       0.00000000
