10
Lattice="16.28999089631971 0.0 0.0 0.0 16.28999089631971 0.0 0.0 0.0 34.33025523377368" Properties=species:S:1:pos:R:3:initial_magmoms:R:1 pbc="T T T"
Si      -1.35708732      -1.35601218      -1.35851762       0.00000000
Si       1.35717327      -1.35708732       1.35803700       0.00000000
Si      -1.35812988       1.35809730       1.35735039       0.00000000
Si       1.35801191       1.35928647      -1.35728173       0.00000000
Si       2.71358887      -2.71510317       0.00024031       0.00000000
Si      -0.00034209      -2.71423980       2.71476944       0.00000000
Si      -0.00086337       2.71502172       2.71401417       0.00000000
Si       2.71400915       2.71551042      -0.00030897       0.00000000
Si       2.71540683       0.00156384       2.71415150       0.00000000
Si      -2.71526607      -2.71485882      -0.00003433       0.00000000
