10
Lattice="16.28999089631971 0.0 0.0 0.0 16.28999089631971 0.0 0.0 0.0 34.33025523377368" Properties=species:S:1:pos:R:3:initial_magmoms:R:1 pbc="T T T"
Si      -1.40497992       1.24330167      -1.42089573       0.00000000
Si      -0.85669110      -1.83269016       1.20485531       0.00000000
Si       1.11974202       1.60109523       1.37159745       0.00000000
Si       1.33077897      -1.44806697      -1.42192564       0.00000000
Si       0.76590693      -3.53051541       0.79423090       0.00000000
Si       2.76665159       2.62058859       0.02770453       0.00000000
Si      -0.03305241       2.59747308      -2.78919748       0.00000000
Si      -2.89875663       2.51801046      -0.01675317       0.00000000
Si       2.67948740      -0.12080664      -2.79170359       0.00000000
Si      -2.72272689      -2.75398740      -0.04105901       0.00000000
