10
Lattice="16.28999089631971 0.0 0.0 0.0 16.28999089631971 0.0 0.0 0.0 34.33025523377368" Properties=species:S:1:pos:R:3:initial_magmoms:R:1 pbc="T T T"
Si      -2.13498369      -0.46635012      -0.79024859       0.00000000
Si       1.08185378       2.04796251      -0.62151529       0.00000000
Si       1.85148460      -1.34921925      -1.32147525       0.00000000
Si      -1.06091883       0.30102291       2.43521802       0.00000000
Si       1.46264067      -2.18981583       0.84747715       0.00000000
Si       1.07681040      -0.85421502       2.96452219       0.00000000
Si       1.85202543       2.22988923       1.61156607       0.00000000
Si      -0.60206211      -3.41459577       0.48628834       0.00000000
Si      -2.76286545      -2.34333279       0.52199182       0.00000000
Si      -3.31656255       1.55437551      -0.25208721       0.00000000
