10
Lattice="16.28999089631971 0.0 0.0 0.0 16.28999089631971 0.0 0.0 0.0 34.33025523377368" Properties=species:S:1:pos:R:3:initial_magmoms:R:1 pbc="T T T"
Si       0.79861725       1.98513198       0.84112605       0.00000000
Si      -2.19501234      -0.65844180       0.45693595       0.00000000
Si       1.47181779      -1.74358386       0.60936237       0.00000000
Si      -0.60036795       0.37440936      -2.31574866       0.00000000
Si      -2.92827411       0.20857716      -1.59745633       0.00000000
Si      -1.82811267      -2.93724990       0.20024849       0.00000000
Si       2.71225242       2.14899309      -0.52875489       0.00000000
Si       0.34316514      -3.50969679      -0.41210061       0.00000000
Si       0.76701465      -1.14399783      -3.49334573       0.00000000
Si      -0.77457321       3.66656949       0.40262546       0.00000000
