10
Lattice="16.28999089631971 0.0 0.0 0.0 16.28999089631971 0.0 0.0 0.0 34.33025523377368" Properties=species:S:1:pos:R:3:initial_magmoms:R:1 pbc="T T T"
Si       1.12412144       1.84608054       0.79567277       0.00000000
Si      -0.49637259       0.73184454      -2.15741744       0.00000000
Si       1.70617943      -1.55250216       0.35583329       0.00000000
Si      -1.91363517      -0.16386111       1.36988094       0.00000000
Si      -2.71225242      -2.14899309       0.52875489       0.00000000
Si      -0.28725786       3.56842224       0.26224897       0.00000000
Si       1.26301976      -2.07195768       2.68246465       0.00000000
Si       0.73961487      -3.58490772      -0.10865532       0.00000000
Si      -0.87506622      -0.43043067       3.60306529       0.00000000
Si      -0.77823846       3.08298024      -2.00911065       0.00000000
