10
Lattice="16.28999089631971 0.0 0.0 0.0 16.28999089631971 0.0 0.0 0.0 34.33025523377368" Properties=species:S:1:pos:R:3:initial_magmoms:R:1 pbc="T T T"
Si      -1.35645145      -1.35715737       1.35618316       0.00000000
Si      -1.35710305       1.35863487      -1.35748771       0.00000000
Si       1.35939847       1.35803214       1.35580553       0.00000000
Si       1.35712602      -1.35787576      -1.35841463       0.00000000
Si       2.71243936       0.00074934       2.71432315       0.00000000
Si       0.00073634       2.71573848      -2.71212601       0.00000000
Si      -2.71298491      -0.00003258      -2.71566203       0.00000000
Si      -2.71451617       2.71432125      -0.00054928       0.00000000
Si      -0.00390904      -2.71326959       2.71569636       0.00000000
Si       0.00216220       2.71314837       2.71597100       0.00000000
