10
Lattice="16.28999089631971 0.0 0.0 0.0 16.28999089631971 0.0 0.0 0.0 34.33025523377368" Properties=species:S:1:pos:R:3:initial_magmoms:R:1 pbc="T T T"
Si      -1.37320139       1.17978696      -1.58822149       0.00000000
Si      -1.29318817      -1.47137796       1.43758024       0.00000000
Si       0.89208927       1.86243570       1.36411345       0.00000000
Si       1.34434854      -1.51231473      -1.57246389       0.00000000
Si      -2.61561330       2.67608862      -0.20474576       0.00000000
Si       2.72635956       2.71751409      -0.02852846       0.00000000
Si      -0.87882921       3.54160890       1.30877305       0.00000000
Si      -0.01285281       2.53798200      -2.96558643       0.00000000
Si       0.33806637      -2.69943219       2.81511683       0.00000000
Si      -2.70459140      -2.88750024      -0.02959270       0.00000000
