10
Lattice="16.28999089631971 0.0 0.0 0.0 16.28999089631971 0.0 0.0 0.0 34.33025523377368" Properties=species:S:1:pos:R:3:initial_magmoms:R:1 pbc="T T T"
Si      -1.35726651      -1.35692442      -1.35666378       0.00000000
Si       1.35726747       1.35822762      -1.35666378       0.00000000
Si       1.35698375      -1.35870003       1.35724740       0.00000000
Si      -1.35555606       1.35957969       1.35975351       0.00000000
Si       0.00827532      -2.68596036       2.72702535       0.00000000
Si      -2.71472850       0.00076563      -2.71370520       0.00000000
Si       0.00086337      -2.71502172      -2.71401417       0.00000000
Si       2.71487252       0.00048870      -2.71432315       0.00000000
Si       0.00057015       2.71515204      -2.71418583       0.00000000
Si       2.71627020      -2.71345788       0.00013732       0.00000000
