10
Lattice="16.28999089631971 0.0 0.0 0.0 16.28999089631971 0.0 0.0 0.0 34.33025523377368" Properties=species:S:1:pos:R:3:initial_magmoms:R:1 pbc="T T T"
Si      -1.35905841       1.35633798      -1.35889525       0.00000000
Si       1.35555606      -1.35957969      -1.35975351       0.00000000
Si       1.35656604       1.34936586       1.37461852       0.00000000
Si      -1.37192751      -1.35417141       1.36830175       0.00000000
Si      -0.11262906       2.61280197       2.75002663       0.00000000
Si       0.03305241      -2.59747308       2.78919748       0.00000000
Si       2.70920619       2.71546155       0.00013732       0.00000000
Si      -2.71445157       2.71215468       0.00116723       0.00000000
Si       2.71282353      -0.00135207      -2.71641729       0.00000000
Si      -0.00175932       2.71320291      -2.71634863       0.00000000
