10
Lattice="16.28999089631971 0.0 0.0 0.0 16.28999089631971 0.0 0.0 0.0 34.33025523377368" Properties=species:S:1:pos:R:3:initial_magmoms:R:1 pbc="T T T"
Si      -1.25382501       1.46672458      -1.36813010       0.00000000
Si      -1.59376473      -1.13678136       1.34653635       0.00000000
Si       1.46919510      -1.26343611      -1.37540811       0.00000000
Si       2.42593938       0.79935749       1.43232771       0.00000000
Si       0.80804916       0.06848316       3.03946518       0.00000000
Si      -0.05892093      -2.14412238       2.75291038       0.00000000
Si      -0.93432924       1.80283778       3.00472294       0.00000000
Si      -2.60182251       0.09935271      -2.74885940       0.00000000
Si       0.11262906      -2.61280197      -2.75002663       0.00000000
Si      -2.75307516      -2.69226459       0.02241767       0.00000000
