10
Lattice="16.28999089631971 0.0 0.0 0.0 16.28999089631971 0.0 0.0 0.0 34.33025523377368" Properties=species:S:1:pos:R:3:initial_magmoms:R:1 pbc="T T T"
Si      -0.22939578      -0.89086752       2.14111055       0.00000000
Si       1.14851016       2.05175808       0.36877581       0.00000000
Si      -2.20075945       0.89358795      -0.25895326       0.00000000
Si       0.39395736      -1.85653872      -1.56848158       0.00000000
Si      -2.00996934      -2.35714671       1.52083116       0.00000000
Si      -1.81191552       1.73418453      -2.42790567       0.00000000
Si      -1.27430154      -3.27629367      -0.55268309       0.00000000
Si       1.87823700      -2.02921272       2.46996025       0.00000000
Si      -0.43666974       3.55973967       1.44743303       0.00000000
Si       2.13625431       2.81825145      -1.59769664       0.00000000
