10
Lattice="16.28999089631971 0.0 0.0 0.0 16.28999089631971 0.0 0.0 0.0 34.33025523377368" Properties=species:S:1:pos:R:3:initial_magmoms:R:1 pbc="T T T"
Si      -0.38884393      -0.84059658       2.16895241       0.00000000
Si       2.11178184       0.92851371      -0.80013571       0.00000000
Si      -1.28687905      -1.71892080      -1.39937065       0.00000000
Si      -1.85148460       1.34921925       1.32147525       0.00000000
Si       1.21322544       3.18239811      -0.66545804       0.00000000
Si       1.81191552      -1.73418453       2.42790567       0.00000000
Si      -0.76963082       3.39718176       0.69995997       0.00000000
Si      -2.45354671      -2.06537652       1.80776359       0.00000000
Si      -3.41631829      -0.25510140      -1.82376150       0.00000000
Si       2.10546132       0.57479265      -3.30476954       0.00000000
