10
Lattice="16.28999089631971 0.0 0.0 0.0 16.28999089631971 0.0 0.0 0.0 34.33025523377368" Properties=species:S:1:pos:R:3:initial_magmoms:R:1 pbc="T T T"
Si      -2.27680021      -0.63003204      -0.36959973       0.00000000
Si       0.50306289       1.33933122      -1.93248548       0.00000000
Si       1.96259802      -1.43470917      -0.07810137       0.00000000
Si       0.11621938       1.53725472       1.92940403       0.00000000
Si       1.46526432       3.05657415       0.57722923       0.00000000
Si      -2.74898215       1.69844427      -1.25792992       0.00000000
Si       2.66775954       1.99681191      -1.15548838       0.00000000
Si       2.02002027      -1.91330937       2.21797402       0.00000000
Si       1.25838132       0.04670343       3.35963416       0.00000000
Si       3.69655449      -0.10801899      -1.00247834       0.00000000
