10
Lattice="16.28999089631971 0.0 0.0 0.0 16.28999089631971 0.0 0.0 0.0 34.33025523377368" Properties=species:S:1:pos:R:3:initial_magmoms:R:1 pbc="T T T"
Si       1.35884990      -1.35568638       1.35916989       0.00000000
Si      -1.35473314       1.35956340       1.36147002       0.00000000
Si      -1.34481601      -1.36822968      -1.37310112       0.00000000
Si       1.35169859       1.37567421      -1.37630070       0.00000000
Si       0.21792599      -2.58732441      -2.78779680       0.00000000
Si      -2.71364100       2.71562445       0.00164785       0.00000000
Si       2.71289099       2.71682991       0.00257477       0.00000000
Si      -2.71098573      -2.71997388       0.00449727       0.00000000
Si      -2.71274505       0.00027693       2.71875175       0.00000000
Si       0.00084382      -2.71482624       2.71899206       0.00000000
