10
Lattice="16.28999089631971 0.0 0.0 0.0 16.28999089631971 0.0 0.0 0.0 34.33025523377368" Properties=species:S:1:pos:R:3:initial_magmoms:R:1 pbc="T T T"
Si      -1.61621235      -0.59021928       1.63865266       0.00000000
Si       0.04639392       2.12745771      -1.10176150       0.00000000
Si       2.22726654      -0.05277960       0.96045809       0.00000000
Si      -0.98935686      -1.45228608      -1.73501774       0.00000000
Si      -2.36406181       0.30126726      -2.67731511       0.00000000
Si       3.34153512      -1.02431520      -0.88149846       0.00000000
Si      -3.23043895       1.08898650       1.30259360       0.00000000
Si       3.01156488       2.22747831       0.33575008       0.00000000
Si       2.25833157       2.43116847      -1.84686577       0.00000000
Si      -2.42715624      -2.76299577       1.05514098       0.00000000
