10
Lattice="16.28999089631971 0.0 0.0 0.0 16.28999089631971 0.0 0.0 0.0 34.33025523377368" Properties=species:S:1:pos:R:3:initial_magmoms:R:1 pbc="T T T"
Si      -1.34985619      -1.33926606       1.37427522       0.00000000
Si      -1.35304088       1.35728280      -1.35851762       0.00000000
Si       1.36052451      -1.35781548      -1.35872360       0.00000000
Si       1.36197432       1.37803626       1.39449575       0.00000000
Si       0.17795196      -2.56014764       2.72760896       0.00000000
Si      -2.71027716       2.71239903       0.00164785       0.00000000
Si      -2.71243936      -0.00074934      -2.71432315       0.00000000
Si       2.71259451       2.71446786       0.00281508       0.00000000
Si       0.00236205       2.71427238      -2.71459779       0.00000000
Si      -2.71634840      -2.71401893       0.00137321       0.00000000
