10
Lattice="16.28999089631971 0.0 0.0 0.0 16.28999089631971 0.0 0.0 0.0 34.33025523377368" Properties=species:S:1:pos:R:3:initial_magmoms:R:1 pbc="T T T"
Si       1.75996508      -1.32818886      -0.80401503       0.00000000
Si      -0.01225660       1.94676903      -1.42103305       0.00000000
Si      -1.91560367      -1.06324830      -1.00687262       0.00000000
Si       1.23452625       0.91150695       1.86366499       0.00000000
Si      -1.54002143      -1.93914531       1.99632747       0.00000000
Si       0.22248230      -2.70477531      -1.92747326       0.00000000
Si       2.81034428       2.33354250       0.48010889       0.00000000
Si      -2.07343748       3.16618956      -1.13489021       0.00000000
Si       0.08358399       1.21326291      -3.81426514       0.00000000
Si       2.65567073      -2.97468432       0.69051914       0.00000000
