10
Lattice="16.290000149 0.0 0.0 0.0 16.290000149 0.0 0.0 0.0 29.1751946751" Properties=species:S:1:pos:R:3:initial_magmoms:R:1 pbc="T T T"
Si      -1.33871221      -1.38078928       1.31510108       0.00000000
Si       1.30236922      -1.34594497      -1.43229783       0.00000000
Si       1.22870584       1.43165155       1.42780485       0.00000000
Si      -1.39566205       1.33990627      -1.36607014       0.00000000
Si       0.20802330      -2.70249473       2.50270655       0.00000000
Si       2.63959904       2.71676477       0.04449217       0.00000000
Si      -2.70435179      -0.01071882       2.65610972       0.00000000
Si      -0.28639449       2.75002896       2.63204019       0.00000000
Si       2.65663838       0.00954594      -2.76575010       0.00000000
Si      -0.06457356       2.70679529      -2.73251956       0.00000000
