10
Lattice="16.290000149 0.0 0.0 0.0 16.290000149 0.0 0.0 0.0 29.1751946751" Properties=species:S:1:pos:R:3:initial_magmoms:R:1 pbc="T T T"
Si      -0.68069395       2.05121890       0.77620605       0.00000000
Si       2.01259694      -0.68401548       0.93556097       0.00000000
Si      -1.24607098      -1.78763367       0.82516203       0.00000000
Si      -0.63226378      -0.67228016      -2.14881144       0.00000000
Si      -0.66650536      -2.82069660      -1.17576035       0.00000000
H        0.72954766       2.37091015      -2.12748437       0.00000000
Si      -1.31263192       1.53831196       2.95702268       0.00000000
Si       3.28380339       1.28472552       1.07916128       0.00000000
Si      -3.52865838       0.79284897      -0.77393039       0.00000000
Si      -3.47560185      -1.27599734       0.51502971       0.00000000
