10
Lattice="16.290000149 0.0 0.0 0.0 16.290000149 0.0 0.0 0.0 29.1751946751" Properties=species:S:1:pos:R:3:initial_magmoms:R:1 pbc="T T T"
Si      -1.36805050      -1.35550720      -1.33088486       0.00000000
Si      -1.43682688       1.33630129       1.27956569       0.00000000
Si       1.35220033       1.35270532      -1.36143128       0.00000000
Si       1.36459702      -1.32489829       1.38059939       0.00000000
Si      -0.08612523       2.67802715       2.59277038       0.00000000
Si      -0.08793342      -2.62510094       2.68578090       0.00000000
Si       0.00151497      -2.71376741      -2.66246992       0.00000000
Si      -2.71259453       0.02634093      -2.67373154       0.00000000
Si       2.72948726      -0.01342296      -2.67349814       0.00000000
Si       2.72994339       2.69353523      -0.03048808       0.00000000
