10
Lattice="16.290000149 0.0 0.0 0.0 16.290000149 0.0 0.0 0.0 29.1751946751" Properties=species:S:1:pos:R:3:initial_magmoms:R:1 pbc="T T T"
Si      -0.91566091      -1.82527823       1.17640220       0.00000000
Si       1.55686789       0.79605973       1.58459235       0.00000000
Si       1.17268453       0.12860955      -2.04906145       0.00000000
Si      -1.95336650       1.47561337      -0.25414512       0.00000000
Si      -1.96424822      -0.33236487       2.63344060       0.00000000
H        1.85119562      -2.82844902      -0.14911442       0.00000000
Si      -0.06667497       0.97692760       3.25630183       0.00000000
H       -2.89593849       0.46662705       1.73840397       0.00000000
Si       2.38049030       2.73667441       0.56357724       0.00000000
Si       2.73396701       1.93020212      -1.61677259       0.00000000
