10
Lattice="16.290000149 0.0 0.0 0.0 16.290000149 0.0 0.0 0.0 29.1751946751" Properties=species:S:1:pos:R:3:initial_magmoms:R:1 pbc="T T T"
Si       1.31455414       1.35889552       1.34298673       0.00000000
Si      -1.37697742       1.26442981      -1.41436384       0.00000000
Si       1.28475973      -1.44907696      -1.32846040       0.00000000
Si      -1.42685740      -1.39219228       1.27906387       0.00000000
Si      -2.19168920      -0.59339584      -2.59195201       0.00000000
Si      -0.56207017      -2.32976324      -2.50277365       0.00000000
Si       2.62158230       2.64927530      -0.12700546       0.00000000
Si       2.63256176      -0.03295467       2.68247826       0.00000000
Si      -0.10399536       2.68957676       2.64393783       0.00000000
Si       2.53646705      -2.82061353       0.08100493       0.00000000
