10
Lattice="16.290000149 0.0 0.0 0.0 16.290000149 0.0 0.0 0.0 29.1751946751" Properties=species:S:1:pos:R:3:initial_magmoms:R:1 pbc="T T T"
Si      -1.25553547      -1.37161801       1.42374658       0.00000000
Si       0.95270437      -1.26185599      -1.75713445       0.00000000
Si      -1.45375219       1.41035563      -1.21914386       0.00000000
Si       1.39354435       1.37609776       1.33717794       0.00000000
Si       2.34387038       0.17441703      -2.93444108       0.00000000
Si      -2.68200191       0.00472410       2.71385619       0.00000000
Si      -2.07024725      -3.22944366       0.24615841       0.00000000
Si       0.03095100       2.72288981       2.72720967       0.00000000
Si      -0.18722097       2.89359273      -2.54098440       0.00000000
Si       2.74302426       0.01322748       2.71110497       0.00000000
