10
Lattice="16.290000149 0.0 0.0 0.0 16.290000149 0.0 0.0 0.0 29.1751946751" Properties=species:S:1:pos:R:3:initial_magmoms:R:1 pbc="T T T"
Si      -1.36872654       1.34058556      -1.36011840       0.00000000
Si      -1.33036685      -1.39738879       1.34302174       0.00000000
Si       1.29826414      -1.35746200      -1.41698085       0.00000000
Si       1.35793441       1.38085444       1.34914853       0.00000000
Si       2.77736358       0.01081656       2.60438210       0.00000000
Si      -2.73320138      -0.08105904       2.65981497       0.00000000
Si       2.60951141      -2.78327685      -0.11953077       0.00000000
Si      -0.01027899       2.69347007      -2.71098826       0.00000000
Si      -2.70691301       2.70228296       0.01067812       0.00000000
Si       0.04083903      -2.63492381       2.78696047       0.00000000
