10
Lattice="16.290000149 0.0 0.0 0.0 16.290000149 0.0 0.0 0.0 29.1751946751" Properties=species:S:1:pos:R:3:initial_magmoms:R:1 pbc="T T T"
Si       1.34362039       1.33014367      -1.38114205       0.00000000
Si      -1.33331534      -1.35798328      -1.37805239       0.00000000
Si      -1.35348236       1.38968362       1.32820074       0.00000000
Si       1.37015680      -1.34846992       1.36312345       0.00000000
Si      -2.62625265      -2.67428045       0.09058898       0.00000000
Si       2.70753323       2.69643485      -0.01823450       0.00000000
Si      -2.69256924       0.03505608       2.71294300       0.00000000
Si      -0.04379404       2.66838347      -2.75311141       0.00000000
Si       0.01223053       2.71803539       2.70681621       0.00000000
Si       2.73227774       0.00488700       2.71516032       0.00000000
