10
Lattice="16.290000149 0.0 0.0 0.0 16.290000149 0.0 0.0 0.0 29.1751946751" Properties=species:S:1:pos:R:3:initial_magmoms:R:1 pbc="T T T"
Si      -1.43281954       1.31992984      -1.28236651       0.00000000
Si      -1.37878561      -1.31878954       1.36280252       0.00000000
Si       1.33674112       1.40344867       1.33701165       0.00000000
Si       1.34513047      -1.27871614      -1.46042272       0.00000000
Si      -0.07788249       2.66110184      -2.59759595       0.00000000
Si       2.68511330      -2.61555500      -0.03953239       0.00000000
Si      -0.02225214      -2.68918580       2.70054354       0.00000000
Si      -2.75349873      -2.64479555       0.00058350       0.00000000
Si       2.70005123       0.06384051       2.70022262       0.00000000
Si      -2.74724337       0.06030558       2.68458471       0.00000000
