10
Lattice="16.290000149 0.0 0.0 0.0 16.290000149 0.0 0.0 0.0 29.1751946751" Properties=species:S:1:pos:R:3:initial_magmoms:R:1 pbc="T T T"
Si      -2.20103966       0.71501698       0.45174871       0.00000000
Si      -0.27938979      -2.03216123       1.19183588       0.00000000
Si       1.57858246       1.30212487       1.22314086       0.00000000
Si      -0.28957104       0.87840568      -2.24523546       0.00000000
H        2.24106419      -0.96565492      -1.65493374       0.00000000
H        0.78908761      -1.86986396      -2.18539713       0.00000000
H        1.59756031      -2.62557335      -0.53921595       0.00000000
H        1.03184119      -2.49957020       1.79529560       0.00000000
Si      -2.16679808       2.86343342      -0.52130238       0.00000000
Si      -0.41972814       3.18347491      -2.01480977       0.00000000
