10
Lattice="16.290000149 0.0 0.0 0.0 16.290000149 0.0 0.0 0.0 29.1751946751" Properties=species:S:1:pos:R:3:initial_magmoms:R:1 pbc="T T T"
Si      -0.92043388       1.02869722      -1.84991157       0.00000000
Si       1.11246040       1.74979037       1.03738240       0.00000000
Si       1.32250366      -1.55778013      -1.12505386       0.00000000
Si      -1.91617643      -1.05704182       0.88946416       0.00000000
H        0.55627093      -1.29699352       2.35811428       0.00000000
Si       0.73544464      -2.68932427       1.75596744       0.00000000
Si      -1.65338615      -1.02910447      -2.74083449       0.00000000
Si      -2.19471914       2.53814492      -0.53040504       0.00000000
Si      -0.44885466      -2.90753697      -1.77478544       0.00000000
Si      -1.17384112      -3.24344491       0.48430823       0.00000000
