10
Lattice="16.290000149 0.0 0.0 0.0 16.290000149 0.0 0.0 0.0 29.1751946751" Properties=species:S:1:pos:R:3:initial_magmoms:R:1 pbc="T T T"
Si       1.00905148       0.05846481      -1.13579033       0.00000000
H       -1.16624998      -1.76832839      -0.32241508       0.00000000
H        1.95688514       0.35831484       1.31040387       0.00000000
Si      -1.69093460      -2.02489589       1.06539058       0.00000000
Si       0.14486697       1.47971845      -2.74001758       0.00000000
H       -2.67745700      -0.91251694      -1.51118756       0.00000000
Si       1.28283751       2.92723158       0.35789211       0.00000000
Si       1.37881819      -2.05540706      -2.06709172       0.00000000
Si       2.89945713       1.36730116      -0.68214523       0.00000000
Si      -2.53182440      -0.14770143       2.17731560       0.00000000
