10
Lattice="16.290000149 0.0 0.0 0.0 16.290000149 0.0 0.0 0.0 29.1751946751" Properties=species:S:1:pos:R:3:initial_magmoms:R:1 pbc="T T T"
Si       1.37370313       1.34333857      -1.34156298       0.00000000
Si       1.36264222      -1.39416337       1.30381027       0.00000000
Si      -1.35588187      -1.35291709      -1.35900974       0.00000000
Si      -1.35153244       1.36984240       1.35025718       0.00000000
Si       0.00395847       2.69099399      -2.68248410       0.00000000
Si      -2.73873998       0.00933417       2.66357857       0.00000000
Si       2.78383071      -0.08623926       2.61765682       0.00000000
Si       0.01479132      -2.75167425       2.65742261       0.00000000
Si       0.01257588      -2.73201221      -2.68079194       0.00000000
Si       0.02668302       2.73483039       2.68578090       0.00000000
