10
Lattice="16.290000149 0.0 0.0 0.0 16.290000149 0.0 0.0 0.0 29.1751946751" Properties=species:S:1:pos:R:3:initial_magmoms:R:1 pbc="T T T"
Si       1.44459721      -1.19646793      -1.35333313       0.00000000
Si      -1.34276354      -1.46416150       1.23182836       0.00000000
Si      -1.35553815       1.23913144      -1.46206908       0.00000000
Si       1.42776964       1.35726652       1.28003453       0.00000000
Si      -2.70309746      -0.00337203       2.51462666       0.00000000
Si       0.08390979      -2.54358578      -2.69250374       0.00000000
Si      -2.52510950       2.83292551      -0.17628907       0.00000000
Si       0.09980883       2.67305870       2.69782646       0.00000000
Si       2.76006360      -0.03704346       2.64768889       0.00000000
Si       0.04465089      -2.80240131       2.60379772       0.00000000
