10
Lattice="16.290000149 0.0 0.0 0.0 16.290000149 0.0 0.0 0.0 29.1751946751" Properties=species:S:1:pos:R:3:initial_magmoms:R:1 pbc="T T T"
Si       1.22313466      -1.41149593       1.44274634       0.00000000
Si      -1.48178728      -1.24796062      -1.37663156       0.00000000
Si      -1.48225969       1.30603757       1.32831744       0.00000000
Si       1.60788817       1.49106444      -0.93696138       0.00000000
Si       2.56140704      -2.76972357       0.09867051       0.00000000
Si       0.86555287       3.67746753      -0.53180545       0.00000000
H        3.00692226      -0.74194435      -2.24354330       0.00000000
Si      -2.79811704      -2.61384455       0.10047937       0.00000000
Si      -0.18353943       2.58689926       2.83653788       0.00000000
H        1.05003712      -1.10025919      -3.55394716       0.00000000
