10
Lattice="16.290000149 0.0 0.0 0.0 16.290000149 0.0 0.0 0.0 29.1751946751" Properties=species:S:1:pos:R:3:initial_magmoms:R:1 pbc="T T T"
Si       1.54121320      -1.26747604      -1.19609546       0.00000000
Si       1.39473352       1.32225931       1.36282586       0.00000000
Si      -1.21585303      -1.43597980       1.44109999       0.00000000
Si      -1.47149200       1.20752884      -1.45552129       0.00000000
H        0.34684668      -1.79449013      -2.23942959       0.00000000
Si      -2.66766671       2.67890681      -0.02441964       0.00000000
Si       2.85094974       2.50023809      -0.05706668       0.00000000
Si      -2.64692954      -0.06431292       2.72446720       0.00000000
Si      -0.13639617       2.52995105      -2.85899403       0.00000000
Si       0.06532290       2.76268629       2.67520197       0.00000000
