10
Lattice="16.290000149 0.0 0.0 0.0 16.290000149 0.0 0.0 0.0 29.1751946751" Properties=species:S:1:pos:R:3:initial_magmoms:R:1 pbc="T T T"
Si       0.81373438      -0.98187976      -1.94680239       0.00000000
Si      -1.33509583      -1.32242221       1.40347274       0.00000000
Si       1.59013207       1.13992534       1.33438588       0.00000000
Si      -1.50812821       1.30474756      -1.28951443       0.00000000
H        1.25872831       0.30157677      -2.61503105       0.00000000
H        0.68751946       1.88683814       2.30732027       0.00000000
Si      -1.06603390      -1.68883319      -3.21714872       0.00000000
Si      -2.90968725      -2.43307442      -0.06208481       0.00000000
Si      -2.55671552       2.79766092       0.16752397       0.00000000
Si      -2.53127054       0.14895576       2.83457439       0.00000000
