10
Lattice="16.290000149 0.0 0.0 0.0 16.290000149 0.0 0.0 0.0 29.1751946751" Properties=species:S:1:pos:R:3:initial_magmoms:R:1 pbc="T T T"
Si      -0.84022192       1.24648638      -1.70869196       0.00000000
Si      -1.83034442      -1.02068254       0.94644915       0.00000000
Si       1.03974184       1.85393560       0.95135058       0.00000000
Si       1.74128699      -1.54264672      -0.46610379       0.00000000
H       -1.01939563       2.63881712      -1.10654511       0.00000000
Si      -0.42256260      -2.38536101       2.19680463       0.00000000
Si       1.47878992      -1.03034251      -2.76903523       0.00000000
Si       2.45806328       0.50924332       2.20250838       0.00000000
Si       1.05603184       1.26173707      -3.04692896       0.00000000
Si       1.00022230      -0.92667295       3.42024892       0.00000000
