10
Lattice="16.290000149 0.0 0.0 0.0 16.290000149 0.0 0.0 0.0 29.1751946751" Properties=species:S:1:pos:R:3:initial_magmoms:R:1 pbc="T T T"
Si      -1.34688051      -1.35479044       1.35606305       0.00000000
Si      -1.36971909       1.35619138      -1.33966659       0.00000000
Si       1.32882532      -1.34998489      -1.39060648       0.00000000
Si       1.31602953       1.36446670       1.39401998       0.00000000
Si       0.02653120       2.69158043      -2.67434422       0.00000000
Si       2.68106638      -2.70888041      -0.03215106       0.00000000
Si      -2.68999102       0.00954594       2.70722466       0.00000000
Si       2.68973266       2.71384886       0.04402537       0.00000000
Si      -2.71895464      -2.70202232       0.00183804       0.00000000
Si       2.70786343       0.01519857       2.72122876       0.00000000
