10
Lattice="16.290000149 0.0 0.0 0.0 16.290000149 0.0 0.0 0.0 29.1751946751" Properties=species:S:1:pos:R:3:initial_magmoms:R:1 pbc="T T T"
Si       1.33183783       1.34019786      -1.32946402       0.00000000
Si      -1.32910111       1.42000257       1.28554660       0.00000000
Si       1.43597980      -1.34612090       1.25937645       0.00000000
Si      -1.36277254      -1.28206102      -1.40767980       0.00000000
Si       0.05747112      -2.69059978       2.59399573       0.00000000
Si      -2.67638186       0.04484800       2.62139124       0.00000000
Si       0.05836707       2.76910780       2.60913766       0.00000000
Si       2.78427054       0.04024607       2.59808026       0.00000000
Si      -0.04079016      -2.76903613      -2.61506606       0.00000000
Si      -2.71114472      -2.67878953      -0.09904979       0.00000000
