10
Lattice="16.290000149 0.0 0.0 0.0 16.290000149 0.0 0.0 0.0 29.1751946751" Properties=species:S:1:pos:R:3:initial_magmoms:R:1 pbc="T T T"
Si       0.84088981      -1.87719446      -1.11192502       0.00000000
Si       1.48178728       1.24796062       1.37663156       0.00000000
Si      -1.37614663       1.31683474      -1.43562380       0.00000000
Si      -1.31632975      -1.36588393       1.47711093       0.00000000
H        1.36557442      -1.62062695      -2.49973068       0.00000000
H        2.53182440       0.14770143      -2.17731560       0.00000000
Si      -0.00047241       2.55399819       2.70494900       0.00000000
Si      -2.80160310       2.49660542       0.02234820       0.00000000
H       -0.14563260      -0.76481551      -3.68850316       0.00000000
Si       2.53633673      -2.80453530       0.19197278       0.00000000
