10
Lattice="16.290000149 0.0 0.0 0.0 16.290000149 0.0 0.0 0.0 29.1751946751" Properties=species:S:1:pos:R:3:initial_magmoms:R:1 pbc="T T T"
Si       1.33331534       1.35798328       1.37805239       0.00000000
Si      -1.29293731      -1.31629717       1.46864137       0.00000000
Si      -1.38854332       1.36161595      -1.35491063       0.00000000
Si       1.39935988      -1.35151615      -1.36606139       0.00000000
Si      -0.10616193      -2.73530279      -2.53476046       0.00000000
Si       0.06767290       2.53959473      -2.77480317       0.00000000
Si      -2.68377752      -2.66093894       0.19415509       0.00000000
Si       2.67693572       2.68812695      -0.00308965       0.00000000
Si       2.70347213       0.00951336       2.74117584       0.00000000
Si       2.75814138      -2.69030981       0.01440088       0.00000000
