10
Lattice="16.290000149 0.0 0.0 0.0 16.290000149 0.0 0.0 0.0 29.1751946751" Properties=species:S:1:pos:R:3:initial_magmoms:R:1 pbc="T T T"
Si       1.35553815      -1.23913144       1.46206908       0.00000000
Si      -1.16957135       1.59379407       1.28578000       0.00000000
Si       1.31486202       1.42688998      -1.34602678       0.00000000
Si      -1.45521992      -1.38168523      -1.35892222       0.00000000
Si      -0.52982574       2.60137456      -2.28030404       0.00000000
Si       2.80013537      -2.43559937       0.10873595       0.00000000
Si      -1.45662086       3.42119325      -0.28308691       0.00000000
Si       0.01530934      -2.60081255      -2.68884429       0.00000000
Si      -2.65025433       0.28445598       2.65352480       0.00000000
Si       0.01277462      -2.70329294       2.69389744       0.00000000
