10
Lattice="16.290000149 0.0 0.0 0.0 16.290000149 0.0 0.0 0.0 29.1751946751" Properties=species:S:1:pos:R:3:initial_magmoms:R:1 pbc="T T T"
Si      -1.32300865      -1.33980364      -1.39253496       0.00000000
Si       1.35361756       1.31704651      -1.39745390       0.00000000
Si      -1.37767789       1.36001953       1.33424000       0.00000000
Si       1.35395965      -1.36637263       1.35542119       0.00000000
Si       2.70003494       2.68426622      -0.03544786       0.00000000
Si      -2.69570506      -2.70278795      -0.03366817       0.00000000
Si      -0.01555695       2.71337645       2.68627687       0.00000000
Si       0.09298332      -2.72399753      -2.67438507       0.00000000
Si       2.70295085      -0.01060479       2.71635650       0.00000000
Si      -2.70690118       0.00068418       2.71623980       0.00000000
