10
Lattice="16.290000149 0.0 0.0 0.0 16.290000149 0.0 0.0 0.0 29.1751946751" Properties=species:S:1:pos:R:3:initial_magmoms:R:1 pbc="T T T"
Si      -1.33026063       1.40898727      -1.31034552       0.00000000
Si       1.33692553       1.37546245       1.34418874       0.00000000
Si       1.34812164      -1.32800968      -1.40571923       0.00000000
Si      -1.38338232      -1.33341796       1.36627437       0.00000000
Si      -2.72110085       0.06434550      -2.58483181       0.00000000
Si       2.64358716      -2.67946067       0.02617015       0.00000000
Si       2.68115190       0.01847286       2.70734137       0.00000000
Si       2.66614881       2.73479781      -0.03781105       0.00000000
Si      -0.05045306       2.73737163       2.66556249       0.00000000
Si      -2.75242652      -2.68136660       0.02800819       0.00000000
