10
Lattice="16.290000149 0.0 0.0 0.0 16.290000149 0.0 0.0 0.0 29.1751946751" Properties=species:S:1:pos:R:3:initial_magmoms:R:1 pbc="T T T"
Si       0.59266279       0.10513566       1.40224738       0.00000000
H        2.11118402      -0.74354077      -0.30540594       0.00000000
Si       1.39764943      -0.82862344      -1.63296482       0.00000000
Si      -0.46739268      -2.30122316      -1.79304911       0.00000000
Si      -1.12042621       0.53903610       2.93123181       0.00000000
H       -3.11476206      -0.64133731       0.74072902       0.00000000
Si       1.06160302      -1.91938556       2.47321043       0.00000000
H       -1.70691509      -2.67072923       1.19192340       0.00000000
Si       1.07167024       1.11698902      -3.01330163       0.00000000
Si       2.49367322       1.60194232       1.71418856       0.00000000
