10
Lattice="16.290000149 0.0 0.0 0.0 16.290000149 0.0 0.0 0.0 29.1751946751" Properties=species:S:1:pos:R:3:initial_magmoms:R:1 pbc="T T T"
Si      -0.83994499      -0.93261880      -0.81579679       0.00000000
H        1.45197658       0.90420904       0.53046339       0.00000000
H        0.80847271      -0.75570940       1.64618118       0.00000000
Si       2.09621351       1.72848305      -0.55039005       0.00000000
Si      -1.07865865       2.74826964      -0.05983832       0.00000000
Si      -0.78908761       1.86986396       2.18539713       0.00000000
Si      -2.13415292       0.36155655      -2.24223041       0.00000000
Si       0.59017042      -2.37684134      -1.93580334       0.00000000
Si      -2.67131567      -1.75627379       0.34797255       0.00000000
Si       1.99397747      -1.26765523       2.44572739       0.00000000
