10
Lattice="16.290000149 0.0 0.0 0.0 16.290000149 0.0 0.0 0.0 29.1751946751" Properties=species:S:1:pos:R:3:initial_magmoms:R:1 pbc="T T T"
Si       1.35844755       1.35288451      -1.35086986       0.00000000
Si       1.36872654      -1.34058556       1.36011840       0.00000000
Si      -1.33818647       1.36169740       1.37079652       0.00000000
Si      -1.35235688      -1.37516923      -1.34923605       0.00000000
Si      -2.68238473      -0.05563035       2.67221443       0.00000000
Si       2.66699068      -2.69804756      -0.05686245       0.00000000
Si      -0.03338636       2.70215264      -2.67807864       0.00000000
Si      -2.69629639      -0.01710450      -2.71603557       0.00000000
Si       2.67474472      -0.01058850      -2.74039686       0.00000000
Si       2.72666095       0.04026888       2.70926693       0.00000000
