10
Lattice="16.290000149 0.0 0.0 0.0 16.290000149 0.0 0.0 0.0 29.1751946751" Properties=species:S:1:pos:R:3:initial_magmoms:R:1 pbc="T T T"
Si       1.34596126      -1.34444629       1.36572004       0.00000000
Si      -1.35379675       1.32890563       1.40064275       0.00000000
Si      -1.42278490      -1.45868806      -1.22344428       0.00000000
Si       1.45784098       1.43591627      -1.21774053       0.00000000
Si      -1.00022230       0.92667295      -3.42024892       0.00000000
Si       0.03951954       2.78060854      -2.46889833       0.00000000
Si      -2.83056672      -0.09400959      -2.47379977       0.00000000
Si       2.68835501      -2.64719018      -0.05814616       0.00000000
Si      -0.08553879      -2.61053768      -2.78217282       0.00000000
Si      -0.00816129      -2.71634123       2.71116332       0.00000000
