10
Lattice="16.290000149 0.0 0.0 0.0 16.290000149 0.0 0.0 0.0 29.1751946751" Properties=species:S:1:pos:R:3:initial_magmoms:R:1 pbc="T T T"
Si      -1.36212094      -1.35335692      -1.35203687       0.00000000
Si      -1.36780615       1.35425287       1.35011131       0.00000000
Si       1.35342208       1.34553772      -1.37453095       0.00000000
Si       1.34985457      -1.35944938       1.36490313       0.00000000
Si       2.69073335       2.69501762       0.01832202       0.00000000
Si       0.01555695      -2.71337645      -2.68627687       0.00000000
Si      -2.69134423      -2.71269227       0.02996293       0.00000000
Si      -0.02474451       2.69154785      -2.73339481       0.00000000
Si       2.71629236      -0.00597843       2.71206775       0.00000000
Si      -0.02471193       2.71485884       2.71396413       0.00000000
