10
Lattice="16.290000149 0.0 0.0 0.0 16.290000149 0.0 0.0 0.0 29.1751946751" Properties=species:S:1:pos:R:3:initial_magmoms:R:1 pbc="T T T"
Si       0.92043388      -1.02869722       1.84991157       0.00000000
Si      -0.73295227      -2.05780169      -0.89092292       0.00000000
Si      -1.27428526       1.50944770       1.31950653       0.00000000
Si       1.97402222       0.63444664      -1.16499470       0.00000000
H       -0.22470426       2.68529249      -1.45910984       0.00000000
Si      -0.10101429      -1.54489474      -3.07173955       0.00000000
Si       2.24293754      -2.58647735       0.72485771       0.00000000
Si      -0.99574255      -2.08573904       2.73937573       0.00000000
Si       2.03289428       0.72109315       2.88729397       0.00000000
Si       3.41554062      -1.22316724      -0.74700168       0.00000000
