10
Lattice="16.290000149 0.0 0.0 0.0 16.290000149 0.0 0.0 0.0 29.1751946751" Properties=species:S:1:pos:R:3:initial_magmoms:R:1 pbc="T T T"
Si       0.93169027      -0.79899193       0.89503662       0.00000000
H       -1.95688514      -0.35831484      -1.31040387       0.00000000
Si       0.94257199       1.00898632      -1.99254910       0.00000000
Si      -0.94783366      -0.29985003      -2.44619420       0.00000000
Si      -0.67404763       2.56891673      -0.95251176       0.00000000
Si      -1.39903408       2.23300879       1.30658192       0.00000000
Si       1.98027758      -2.29190528      -0.56200178       0.00000000
Si      -0.44551521      -2.02777922       2.34221380       0.00000000
Si       2.82926352       0.51030054       1.51789785       0.00000000
Si       2.89593849      -0.46662705      -1.73840397       0.00000000
