10
Lattice="16.290000149 0.0 0.0 0.0 16.290000149 0.0 0.0 0.0 29.1751946751" Properties=species:S:1:pos:R:3:initial_magmoms:R:1 pbc="T T T"
Si       1.35837424       1.36485766      -1.34132958       0.00000000
Si      -1.35154873       1.38562741       1.33636979       0.00000000
Si       1.38787543      -1.34250778       1.34605596       0.00000000
Si      -1.35879778      -1.36135531      -1.35752181       0.00000000
Si      -2.70581789       0.03013650       2.66982206       0.00000000
Si       0.05132979      -2.79093315       2.60169799       0.00000000
Si       2.70814736       0.00413766      -2.70083530       0.00000000
Si       2.69135237       2.71856808       0.04154548       0.00000000
Si      -0.00174303       2.71714596      -2.69435840       0.00000000
Si      -2.72854244      -0.01369989      -2.69844293       0.00000000
