10
Lattice="16.290000149 0.0 0.0 0.0 16.290000149 0.0 0.0 0.0 29.1751946751" Properties=species:S:1:pos:R:3:initial_magmoms:R:1 pbc="T T T"
Si      -1.36653553      -1.35094600       1.34865255       0.00000000
Si       1.30717477       1.29536452       1.47188857       0.00000000
Si      -1.37339362       1.40980177      -1.30231942       0.00000000
Si       1.36259335      -1.34679205      -1.39003173       0.00000000
Si       2.66211182       2.63653652       0.15665913       0.00000000
Si       2.71207325      -2.70966233      -0.01610471       0.00000000
Si      -2.72870535       0.02370195       2.69584634       0.00000000
Si      -0.01350441      -2.66936087       2.75483858       0.00000000
Si      -2.71295291      -2.71816571      -0.01335349       0.00000000
Si      -2.78804982       0.11684817      -2.64697730       0.00000000
