10
Lattice="16.290000149 0.0 0.0 0.0 16.290000149 0.0 0.0 0.0 29.1751946751" Properties=species:S:1:pos:R:3:initial_magmoms:R:1 pbc="T T T"
Si       2.26021146      -0.46232649       0.11775109       0.00000000
Si      -0.35347671       0.80647230       2.18034982       0.00000000
Si      -0.30190257       1.59736321      -1.73942511       0.00000000
Si      -1.56128248      -1.80159257      -0.43228886       0.00000000
H       -1.29951847       2.35781462      -0.57714370       0.00000000
H       -1.43107651       1.89281657       2.20115174       0.00000000
Si       2.49517190      -1.24973623      -2.05335020       0.00000000
Si      -1.17709912      -1.13414239       3.20136494       0.00000000
Si      -2.73396701      -1.93020212       1.61677259       0.00000000
Si      -3.08273592      -0.78812650      -1.92477512       0.00000000
