10
Lattice="16.290000149 0.0 0.0 0.0 16.290000149 0.0 0.0 0.0 29.1751946751" Properties=species:S:1:pos:R:3:initial_magmoms:R:1 pbc="T T T"
Si       1.34557030       1.29500614      -1.36869591       0.00000000
Si      -1.52858845       1.26174196       1.21269614       0.00000000
Si       1.02846916      -0.82049473       1.95608010       0.00000000
Si      -1.41664357      -1.39095424      -1.29864627       0.00000000
Si      -0.79436557      -2.11882403       2.60044345       0.00000000
Si      -2.45374643      -0.46861443       2.49885542       0.00000000
Si       2.59501331       2.61416710       0.10608101       0.00000000
Si      -0.06429663       2.65739587      -2.68350523       0.00000000
Si       2.71120988      -0.07506432      -2.70970456       0.00000000
Si      -0.07794765      -2.71982729      -2.70672869       0.00000000
