10
Lattice="16.290000149 0.0 0.0 0.0 16.290000149 0.0 0.0 0.0 29.1751946751" Properties=species:S:1:pos:R:3:initial_magmoms:R:1 pbc="T T T"
Si       0.96453091      -1.44352207      -1.52603773       0.00000000
Si      -1.69544693       0.92734084      -1.30389780       0.00000000
Si      -1.26653122      -1.48323709       1.32184055       0.00000000
Si       1.50685759       1.28277235       1.28332929       0.00000000
H       -1.17076231       1.18390834      -2.69170346       0.00000000
Si      -0.93647953      -2.94032874      -1.83797891       0.00000000
Si      -2.64956852      -2.50642829      -0.30899449       0.00000000
Si      -2.56987784      -0.05385474       2.62121677       0.00000000
Si       0.16858521       2.64099998       2.62740512       0.00000000
Si       2.53109135      -2.71917569      -0.39345668       0.00000000
