10
Lattice="16.290000149 0.0 0.0 0.0 16.290000149 0.0 0.0 0.0 29.1751946751" Properties=species:S:1:pos:R:3:initial_magmoms:R:1 pbc="T T T"
Si       2.24629328      -0.50569047       0.27270054       0.00000000
Si      -1.57540591      -1.68820276      -0.43949513       0.00000000
Si      -0.72980830       0.63456067       2.17777015       0.00000000
Si      -0.07874586       1.46337958      -1.92532945       0.00000000
H        0.21691764      -1.13419126      -2.83352408       0.00000000
Si      -2.88460065      -0.57190933      -1.98227943       0.00000000
Si      -1.29634192       3.32122152      -1.25593378       0.00000000
Si       1.29451744      -2.22053553      -2.85432600       0.00000000
Si       3.17308840      -1.32550917      -1.72451658       0.00000000
H       -0.01026270       3.87832324      -0.33242217       0.00000000
