10
Lattice="16.290000149 0.0 0.0 0.0 16.290000149 0.0 0.0 0.0 29.1751946751" Properties=species:S:1:pos:R:3:initial_magmoms:R:1 pbc="T T T"
Si      -1.48931326       1.24701580       1.30961614       0.00000000
Si       1.29899915       1.35731539      -1.43568215       0.00000000
Si      -1.43029459      -1.28502037      -1.38477144       0.00000000
Si       1.37248660      -1.33275007       1.43203526       0.00000000
H        1.44568376       1.27334044       2.94681136       0.00000000
Si      -2.92100880      -0.55967554       2.04296383       0.00000000
Si      -2.78412393      -2.29560311       0.25192781       0.00000000
Si       2.55759030      -2.64830605      -0.13986588       0.00000000
Si       2.61455806       0.34907841       2.65651818       0.00000000
Si       2.65714663       2.76364740      -0.11535872       0.00000000
