10
Lattice="16.290000149 0.0 0.0 0.0 16.290000149 0.0 0.0 0.0 29.1751946751" Properties=species:S:1:pos:R:3:initial_magmoms:R:1 pbc="T T T"
Si      -1.35858601      -1.36355446       1.34360524       0.00000000
Si       1.35588187       1.35291709       1.35900974       0.00000000
Si       1.36845775      -1.37909512      -1.32178219       0.00000000
Si      -1.38414502       1.33744159      -1.35014048       0.00000000
Si      -0.02168199       2.70016526      -2.67872050       0.00000000
Si       2.71852409      -0.04124628       2.66282002       0.00000000
Si      -0.00625536      -2.70510113      -2.68400121       0.00000000
Si      -2.73261494       0.00146610       2.67486937       0.00000000
Si      -0.00706986      -2.73958707       2.68548914       0.00000000
Si       2.72958501       2.69625566       0.01744677       0.00000000
