10
Lattice="16.290000149 0.0 0.0 0.0 16.290000149 0.0 0.0 0.0 29.1751946751" Properties=species:S:1:pos:R:3:initial_magmoms:R:1 pbc="T T T"
H        0.52468461       0.25656750      -1.38780566       0.00000000
Si       1.69544693      -0.92734084       1.30389780       0.00000000
Si      -0.84088981       1.87719446       1.11192502       0.00000000
Si      -1.79782958      -1.58988772      -0.12892519       0.00000000
H        1.69093460       2.02489589      -1.06539058       0.00000000
H       -0.98652241       1.11237895      -2.57657814       0.00000000
H       -0.10894752      -0.68123152      -3.01528554       0.00000000
Si      -2.15721956       0.51131052       2.58903595       0.00000000
Si       2.65997783      -2.37086291      -0.22213993       0.00000000
Si       0.42891570      -2.41057793       2.62573835       0.00000000
