10
Lattice="16.290000149 0.0 0.0 0.0 16.290000149 0.0 0.0 0.0 29.1751946751" Properties=species:S:1:pos:R:3:initial_magmoms:R:1 pbc="T T T"
Si      -0.74233531       2.18640310       0.40515593       0.00000000
Si       1.90928576       0.55412065       1.27165921       0.00000000
Si      -1.60788817      -1.49106444       0.93696138       0.00000000
Si       0.72498646       0.33590795      -2.25909367       0.00000000
H        1.39903408      -2.23300879      -1.30658192       0.00000000
H        1.73011205       1.94645139       1.87380605       0.00000000
Si       2.49634478       1.68566478      -1.60936209       0.00000000
Si       1.17384112       3.24344491      -0.48430823       0.00000000
H       -0.55785106      -2.59132363      -2.61698579       0.00000000
Si      -0.38475351      -2.90256037       2.37970772       0.00000000
