10
Lattice="16.290000149 0.0 0.0 0.0 16.290000149 0.0 0.0 0.0 29.1751946751" Properties=species:S:1:pos:R:3:initial_magmoms:R:1 pbc="T T T"
Si      -1.04858731       1.49291335       1.45703840       0.00000000
Si       0.91566091       1.82527823      -1.17640220       0.00000000
Si      -1.34135119      -1.44606331      -1.29873379       0.00000000
Si       1.50812821      -1.30474756       1.28951443       0.00000000
H       -1.98027758       2.29190528       0.56200178       0.00000000
H        2.76685653      -1.00317079      -1.32551662       0.00000000
Si       2.32186259      -2.28662732      -0.65728796       0.00000000
Si       0.44209431      -2.99358075      -1.92763429       0.00000000
Si       0.84898594       2.80220583       2.07989963       0.00000000
Si       2.47252880       2.62133795       0.40819015       0.00000000
