10
Lattice="16.290000149 0.0 0.0 0.0 16.290000149 0.0 0.0 0.0 29.1751946751" Properties=species:S:1:pos:R:3:initial_magmoms:R:1 pbc="T T T"
Si       1.30238551      -1.34861653       1.41695168       0.00000000
Si      -1.37624437       1.34954506       1.34955698       0.00000000
Si      -1.43257519      -1.40326948      -1.23866207       0.00000000
Si       1.42685740       1.39219228      -1.27906387       0.00000000
Si      -2.63722070      -0.00807984      -2.68024928       0.00000000
Si       2.71161713      -0.05688468      -2.60752427       0.00000000
Si       0.04987998       2.65662209      -2.69342771       0.00000000
Si      -0.11989440      -2.72877213      -2.63696204       0.00000000
Si       2.63148662      -2.76861910       0.13140508       0.00000000
Si      -0.02725317       2.70531290       2.71049229       0.00000000
