10
Lattice="16.290000149 0.0 0.0 0.0 16.290000149 0.0 0.0 0.0 29.1751946751" Properties=species:S:1:pos:R:3:initial_magmoms:R:1 pbc="T T T"
Si      -1.34419826      -1.41732775       1.30141791       0.00000000
Si       1.33818647      -1.36169740      -1.37079652       0.00000000
Si      -1.44167762       1.35203743      -1.28134537       0.00000000
Si       1.37882839       1.35765748       1.35769686       0.00000000
Si      -2.58214053      -0.05211171       2.71370156       0.00000000
Si      -0.06411376       2.68061726      -2.66932609       0.00000000
Si      -0.00226669       2.75154539       2.65345478       0.00000000
Si       2.70691301      -2.70228296      -0.01067812       0.00000000
Si       2.69663402      -0.00881289      -2.72166639       0.00000000
Si       2.71500914       2.71239905      -0.00997792       0.00000000
