10
Lattice="16.290000149 0.0 0.0 0.0 16.290000149 0.0 0.0 0.0 29.1751946751" Properties=species:S:1:pos:R:3:initial_magmoms:R:1 pbc="T T T"
Si       1.32910111      -1.42000257      -1.28554660       0.00000000
Si      -1.34728075      -1.37515457       1.33584464       0.00000000
Si       1.38746818       1.34910523       1.32359106       0.00000000
Si      -1.30238551       1.34861653      -1.41695168       0.00000000
Si       2.66093894      -0.07980471      -2.61501063       0.00000000
Si       0.01749546       2.69540858       2.66130291       0.00000000
Si      -2.67862988       2.69816159      -0.06739470       0.00000000
Si      -2.70602966      -0.01716966       2.67454845       0.00000000
Si       0.03694572      -2.73390185       2.65657653       0.00000000
Si      -2.73496070      -0.05465295      -2.65561375       0.00000000
