10
Lattice="16.290000149 0.0 0.0 0.0 16.290000149 0.0 0.0 0.0 29.1751946751" Properties=species:S:1:pos:R:3:initial_magmoms:R:1 pbc="T T T"
Si      -1.37578825      -1.35679411       1.33108908       0.00000000
Si      -1.38422647       1.35874728      -1.32073189       0.00000000
Si       1.35317773       1.36858644       1.34891513       0.00000000
Si       1.34962651      -1.37670049      -1.34812740       0.00000000
Si      -0.00586440      -2.69785208       2.68461389       0.00000000
Si      -0.03694572       2.73390185      -2.65657653       0.00000000
Si      -2.74168847      -0.01221750      -2.65759766       0.00000000
Si      -2.69434973       0.01216863       2.71408083       0.00000000
Si       2.72813520      -0.03222162      -2.68274668       0.00000000
Si       2.72662022       0.02262681       2.68668533       0.00000000
