10
Lattice="16.290000149 0.0 0.0 0.0 16.290000149 0.0 0.0 0.0 29.1751946751" Properties=species:S:1:pos:R:3:initial_magmoms:R:1 pbc="T T T"
Si       0.00547344       1.10086192       1.02801716       0.00000000
H       -1.19772226      -1.67545910      -1.08137859       0.00000000
H        1.07624284       1.82369810      -1.96311132       0.00000000
H       -1.32928030      -2.14045715       1.69691685       0.00000000
Si       2.20061123       1.31517316       1.69484541       0.00000000
Si      -1.62494380       0.45711369       2.60511148       0.00000000
Si      -2.81025309      -1.30308598      -0.94548053       0.00000000
Si      -0.43987887       3.24140052       0.13601476       0.00000000
Si       2.24511714       0.89943607      -2.25340451       0.00000000
Si      -0.20010636      -2.43591051      -2.24366000       0.00000000
