10
Lattice="16.290000149 0.0 0.0 0.0 16.290000149 0.0 0.0 0.0 29.1751946751" Properties=species:S:1:pos:R:3:initial_magmoms:R:1 pbc="T T T"
Si      -1.17260308      -1.36331011       1.47185940       0.00000000
Si       1.63325171       0.67197880       1.52880938       0.00000000
Si       0.44794242      -1.08822088      -2.02178264       0.00000000
Si      -1.44151840       1.85761388      -0.41799301       0.00000000
H        1.92891521      -1.92559205       0.62061474       0.00000000
H        2.06047325      -1.46059399      -2.15768070       0.00000000
Si       0.41565564       2.52982073       2.19820504       0.00000000
Si      -1.77161897       1.19381266      -2.65290045       0.00000000
H        3.25819551       0.21486510      -1.07630211       0.00000000
Si       3.26366895       1.31572702      -0.04828495       0.00000000
