10
Lattice="16.290000149 0.0 0.0 0.0 16.290000149 0.0 0.0 0.0 29.1751946751" Properties=species:S:1:pos:R:3:initial_magmoms:R:1 pbc="T T T"
H        1.08416467      -1.70781104      -0.78599637       0.00000000
Si      -1.74128699       1.54264672       0.46610379       0.00000000
Si      -0.26249706       0.51230421      -2.30293145       0.00000000
Si       1.94281058       0.85015882       1.06798222       0.00000000
Si      -0.82660348      -1.99456391       1.10417988       0.00000000
Si       0.71677630       2.05189005       2.66861217       0.00000000
Si      -2.16384959      -0.84271429       2.66290842       0.00000000
Si       1.98677729      -2.45472383      -1.75893077       0.00000000
Si      -2.16007031      -0.79698826      -2.92579268       0.00000000
Si      -0.70154515       3.39658232       1.41745437       0.00000000
