10
Lattice="16.290000149 0.0 0.0 0.0 16.290000149 0.0 0.0 0.0 29.1751946751" Properties=species:S:1:pos:R:3:initial_magmoms:R:1 pbc="T T T"
Si      -1.38895057       1.35971002       1.31139583       0.00000000
Si       1.33986880       1.34977312      -1.37234281       0.00000000
Si      -1.40111920      -1.37033110      -1.31273788       0.00000000
Si       1.34890975      -1.31308804       1.42932196       0.00000000
Si       2.58455513      -2.73998943       0.00927771       0.00000000
Si       2.68517846       2.68102451       0.02940860       0.00000000
Si      -2.88989490       0.00545715       2.47636135       0.00000000
Si      -0.04963563       2.63766053       2.74941200       0.00000000
Si       2.66374082      -0.02101410      -2.74448139       0.00000000
Si      -2.73237059       2.70503597      -0.06990377       0.00000000
