10
Lattice="16.290000149 0.0 0.0 0.0 16.290000149 0.0 0.0 0.0 29.1751946751" Properties=species:S:1:pos:R:3:initial_magmoms:R:1 pbc="T T T"
H       -1.44200710       0.29673864       0.43412690       0.00000000
Si       0.44535231      -2.14053860       0.89200240       0.00000000
Si      -0.35178255       0.25236468      -2.35966057       0.00000000
Si       1.22256451       1.60252876       1.41345066       0.00000000
H        0.19016946       2.71075376      -0.98332076       0.00000000
H        1.51612172      -1.41770242      -2.09912608       0.00000000
H        0.43987887      -3.24140052      -0.13601476       0.00000000
Si      -0.78609025       2.97321825       1.49563718       0.00000000
Si       3.41578497       0.18740016       0.37565981       0.00000000
Si      -2.02992950       1.92976229      -2.10434844       0.00000000
