10
Lattice="16.290000149 0.0 0.0 0.0 16.290000149 0.0 0.0 0.0 29.1751946751" Properties=species:S:1:pos:R:3:initial_magmoms:R:1 pbc="T T T"
Si      -1.34596126       1.34444629      -1.36572004       0.00000000
Si      -1.35412255      -1.37189494       1.34544328       0.00000000
Si       1.34239375      -1.30274389      -1.42386620       0.00000000
Si       1.35842311       1.34671060       1.36714962       0.00000000
Si      -2.76874617      -0.11424177      -2.58916432       0.00000000
Si       0.11187972       2.78036256      -2.58346057       0.00000000
Si      -2.69975801       2.67335192       0.03492271       0.00000000
Si       2.69125463      -2.68781744      -0.06240574       0.00000000
Si      -2.70852203      -0.01878237       2.71046311       0.00000000
Si       0.00918756      -2.71150310       2.70865425       0.00000000
