10
Lattice="16.290000149 0.0 0.0 0.0 16.290000149 0.0 0.0 0.0 29.1751946751" Properties=species:S:1:pos:R:3:initial_magmoms:R:1 pbc="T T T"
Si       0.49555809       2.20411847      -0.61122033       0.00000000
Si       1.04902714       0.08767278       2.11292595       0.00000000
Si      -0.42828039      -1.81667711      -1.48043690       0.00000000
Si      -2.31599005       0.17161515       0.59374439       0.00000000
H        2.73790920       0.99632899      -0.77343441       0.00000000
H       -0.10160073      -2.93658204       1.04625166       0.00000000
H        1.86033431       2.78993946      -0.33472701       0.00000000
Si      -1.29130831      -3.30357945       0.14759731       0.00000000
Si      -2.09518887       2.02365785       2.03330684       0.00000000
Si      -1.98916052      -0.74204209      -2.84954126       0.00000000
