10
Lattice="16.290000149 0.0 0.0 0.0 16.290000149 0.0 0.0 0.0 29.1751946751" Properties=species:S:1:pos:R:3:initial_magmoms:R:1 pbc="T T T"
Si      -1.31769990       1.43314697      -1.27708580       0.00000000
Si       1.31517300       1.38228633       1.36426128       0.00000000
Si      -1.39625028      -1.33538905       1.33467763       0.00000000
Si       1.27807252      -1.34643367      -1.45660077       0.00000000
Si      -2.64279368       0.09826291      -2.61593256       0.00000000
Si       2.64637389      -2.69276960      -0.08484147       0.00000000
Si      -0.02653120      -2.69158043       2.67434422       0.00000000
Si       2.66320146       0.02226843       2.71836959       0.00000000
Si       2.68884192       0.04600296      -2.71019178       0.00000000
Si       2.63765874       2.76767103       0.00402618       0.00000000
