10
Lattice="16.290000149 0.0 0.0 0.0 16.290000149 0.0 0.0 0.0 29.1751946751" Properties=species:S:1:pos:R:3:initial_magmoms:R:1 pbc="T T T"
Si      -0.33010056      -0.66380122      -2.23490744       0.00000000
Si      -1.97402222      -0.63444664       1.16499470       0.00000000
Si       1.44151840      -1.85761388       0.41799301       0.00000000
Si       0.82683154       2.01207566       1.00400597       0.00000000
H       -2.19872648       2.05084586      -0.29411514       0.00000000
Si       1.85717405       0.67220686       2.61619806       0.00000000
H        2.81782794       1.89539039      -0.08816744       0.00000000
H       -0.38654541       3.24716718      -1.38094949       0.00000000
Si      -2.07503651      -2.17934138      -1.90674485       0.00000000
Si      -1.05358834      -1.66314386       3.01490627       0.00000000
