10
Lattice="16.290000149 0.0 0.0 0.0 16.290000149 0.0 0.0 0.0 29.1751946751" Properties=species:S:1:pos:R:3:initial_magmoms:R:1 pbc="T T T"
H        1.99099640      -0.11668527      -1.09217341       0.00000000
Si       1.03034251      -1.33986880       1.61219208       0.00000000
Si       0.76714498       1.85284091      -1.30100946       0.00000000
Si      -0.82683154      -2.01207566      -1.00400597       0.00000000
Si      -1.07650837       1.10859967       1.85405445       0.00000000
H       -1.21337695       1.23509152      -2.38495546       0.00000000
H       -3.02555802       0.03877020      -1.29812111       0.00000000
H       -1.86383666       1.65845234      -2.42927258       0.00000000
H        2.31642173      -0.78276709       2.53570369       0.00000000
Si      -1.01630053       3.40035834      -0.67210896       0.00000000
