10
Lattice="16.290000149 0.0 0.0 0.0 16.290000149 0.0 0.0 0.0 29.1751946751" Properties=species:S:1:pos:R:3:initial_magmoms:R:1 pbc="T T T"
Si       1.36166482       1.35207001      -1.34906100       0.00000000
Si       1.37464795      -1.34982199       1.34725214       0.00000000
Si      -1.35171163       1.36125757       1.35892222       0.00000000
Si      -1.37008675      -1.35995437      -1.35276625       0.00000000
Si      -0.00187335      -2.67257000       2.70737054       0.00000000
Si      -0.02977812       2.70022391      -2.68047101       0.00000000
Si       2.66294261      -2.71845893      -0.06520656       0.00000000
Si       2.68022630      -0.01689273      -2.73205275       0.00000000
Si      -2.68789238       0.00651600       2.72659699       0.00000000
Si       2.73033434       2.69288852       0.02322346       0.00000000
