10
Lattice="16.290000149 0.0 0.0 0.0 16.290000149 0.0 0.0 0.0 29.1751946751" Properties=species:S:1:pos:R:3:initial_magmoms:R:1 pbc="T T T"
Si      -1.50887755      -1.34069959      -1.19040629       0.00000000
Si      -1.42545646       1.17977068       1.45797200       0.00000000
Si       1.37614663      -1.31683474       1.43562380       0.00000000
Si       0.77916700       1.49640756      -1.71480124       0.00000000
H        1.23051403      -2.08165025      -2.25287936       0.00000000
Si      -1.29321424       2.20698225      -2.56522899       0.00000000
Si      -0.13426218      -2.66747123      -2.52937268       0.00000000
Si      -2.53502702       0.19043010      -2.66871341       0.00000000
Si       0.01677870       2.62030517       2.73800449       0.00000000
H       -0.62002999       3.77483286       0.00965699       0.00000000
