10
Lattice="16.290000149 0.0 0.0 0.0 16.290000149 0.0 0.0 0.0 29.1751946751" Properties=species:S:1:pos:R:3:initial_magmoms:R:1 pbc="T T T"
Si      -1.33931494      -1.27795051      -1.43801617       0.00000000
Si       1.34978941       1.38649078      -1.35717171       0.00000000
Si      -1.13179663       1.12161538       1.74806096       0.00000000
Si       1.33952671      -1.41871240       1.37429755       0.00000000
Si       0.72847252       1.95507695       3.00627041       0.00000000
Si       2.40661946       0.27767934       2.75095828       0.00000000
Si      -2.80712541      -0.38687121       2.48260484       0.00000000
Si       0.04963563      -2.63766053      -2.74941200       0.00000000
Si      -0.09216882      -3.22540374       2.10764524       0.00000000
Si       2.73481409       0.04336398      -2.72000340       0.00000000
