10
Lattice="16.2900001489832 0.0 0.0 0.0 16.2900001489832 0.0 0.0 0.0 29.22087183550747" Properties=species:S:1:pos:R:3:initial_magmoms:R:1 pbc="T T T"
Si       1.86556503       1.08681994       0.87881772       0.00000000
Si      -1.01115289       1.66710233      -1.28253329       0.00000000
Si       0.47486979      -1.49648086      -1.72891132       0.00000000
Si      -1.30642543      -0.99963586       1.99566866       0.00000000
H       -2.61431696      -1.05906178       1.20354927       0.00000000
H       -2.74680354       1.54882063      -1.19276677       0.00000000
Si       0.37323648      -2.85882987       1.87031112       0.00000000
Si       0.66556054       2.40658688       2.38328353       0.00000000
Si       1.06039756      -3.34306641      -0.37911159       0.00000000
Si       2.89960374       2.00106362      -1.06080531       0.00000000
