10
Lattice="16.2900001489832 0.0 0.0 0.0 16.2900001489832 0.0 0.0 0.0 29.22087183550747" Properties=species:S:1:pos:R:3:initial_magmoms:R:1 pbc="T T T"
H        0.98662015      -1.10169108      -0.38133238       0.00000000
Si       1.15106770       1.53907921       1.34632829       0.00000000
Si      -0.40182543       1.20718675      -1.98266537       0.00000000
Si      -1.69187942      -1.15356333       1.18781383       0.00000000
Si      -2.75134845       1.23593860      -1.88880793       0.00000000
Si      -0.27965043      -2.50742198       2.54928730       0.00000000
Si       2.39130686       0.20746944       2.80035888       0.00000000
Si       2.53863362       2.67335192      -0.22783514       0.00000000
Si       0.62358121       3.44210961      -1.49175473       0.00000000
Si      -3.01873251      -2.43225992      -0.31736789       0.00000000
