10
Lattice="16.2900001489832 0.0 0.0 0.0 16.2900001489832 0.0 0.0 0.0 29.22087183550747" Properties=species:S:1:pos:R:3:initial_magmoms:R:1 pbc="T T T"
Si      -0.67955365       2.25585551      -0.06989633       0.00000000
Si      -1.54556263      -1.44549316       1.08961709       0.00000000
Si      -0.00363267      -0.11591964      -2.38360496       0.00000000
Si       2.34953930      -0.73339210       0.60250516       0.00000000
H        0.60690025       2.79107976      -0.64446633       0.00000000
Si       2.09438903       0.89510293       2.50788133       0.00000000
Si      -0.14375925      -2.30558888       2.71327483       0.00000000
Si      -2.23063859       0.40148334      -2.83842783       0.00000000
Si       0.23245830      -0.15897411       3.64363817       0.00000000
Si       2.87622759      -1.50074884      -1.70468722       0.00000000
