10
Lattice="16.2900001489832 0.0 0.0 0.0 16.2900001489832 0.0 0.0 0.0 29.22087183550747" Properties=species:S:1:pos:R:3:initial_magmoms:R:1 pbc="T T T"
Si      -1.06153786      -1.74200375       1.14624714       0.00000000
Si       1.20891349      -1.29331198      -1.53210875       0.00000000
Si      -1.49913939       1.36153939      -1.22336102       0.00000000
Si       1.40266675       1.20460479       1.54490749       0.00000000
Si       2.43726095      -2.64300365      -0.04105532       0.00000000
Si      -2.31249421      -0.54405342       2.74646974       0.00000000
Si       2.59292819       2.60721452       0.04172740       0.00000000
Si      -0.14794578       2.73300591      -2.61369010       0.00000000
Si       0.71693920      -3.46537173       1.44129028       0.00000000
Si      -0.06403599       2.59595813       2.87223638       0.00000000
