10
Lattice="16.2900001489832 0.0 0.0 0.0 16.2900001489832 0.0 0.0 0.0 29.22087183550747" Properties=species:S:1:pos:R:3:initial_magmoms:R:1 pbc="T T T"
Si      -1.34017831      -1.34457661       1.40066158       0.00000000
Si      -1.45160191       1.26009667      -1.41848924       0.00000000
Si       1.26263791       1.36891387       1.51129180       0.00000000
Si       1.50855175      -1.36052452      -1.28005536       0.00000000
Si       2.60472215       2.64751598       0.07213757       0.00000000
Si      -0.01495422       2.43398666      -2.84589084       0.00000000
Si      -2.71678106      -2.63259434      -0.07311354       0.00000000
Si      -2.70233183       2.69895980       0.04084493       0.00000000
Si       2.74879092      -2.69213429       0.17397523       0.00000000
Si       0.05351265      -2.63599895       2.83824081       0.00000000
