10
Lattice="16.2900001489832 0.0 0.0 0.0 16.2900001489832 0.0 0.0 0.0 29.22087183550747" Properties=species:S:1:pos:R:3:initial_magmoms:R:1 pbc="T T T"
Si       1.19026144       1.40260974      -1.50318009       0.00000000
Si      -1.40266675      -1.20460479      -1.54490749       0.00000000
Si      -1.46670274       1.39135335       1.32732888       0.00000000
Si       1.64400310      -1.30840467       1.35310169       0.00000000
Si      -2.53128683      -0.29370219       2.66181688       0.00000000
Si       2.29443023       2.16977100       2.00861351       0.00000000
Si       3.01055493       2.22955531      -0.23353321       0.00000000
Si       0.03140712       2.79349882       2.53225153       0.00000000
Si       2.70976007      -2.72679127      -0.34571213       0.00000000
Si      -2.46420461      -2.94660853      -0.39866035       0.00000000
