10
Lattice="16.2900001489832 0.0 0.0 0.0 16.2900001489832 0.0 0.0 0.0 29.22087183550747" Properties=species:S:1:pos:R:3:initial_magmoms:R:1 pbc="T T T"
Si      -1.53445285      -0.68760091       1.64382015       0.00000000
Si      -1.40181967       0.82018522      -1.71713531       0.00000000
Si       1.53442027       1.78189959       0.40310193       0.00000000
Si       0.71001595      -2.30457890      -0.25828329       0.00000000
H       -0.92375704       2.04061411       1.50353074       0.00000000
H       -1.37174833      -2.19004391       1.62614152       0.00000000
Si       3.16744392       1.15439086      -1.27306572       0.00000000
Si      -3.22697735      -0.64606141      -1.66544359       0.00000000
Si      -3.67587111      -0.26995788       0.61635585       0.00000000
Si      -0.65158372       0.21196548       3.68375843       0.00000000
