10
Lattice="16.2900001489832 0.0 0.0 0.0 16.2900001489832 0.0 0.0 0.0 29.22087183550747" Properties=species:S:1:pos:R:3:initial_magmoms:R:1 pbc="T T T"
Si      -1.34511418       1.22499172      -1.46358581       0.00000000
Si      -1.50047191      -1.34584723       1.21842269       0.00000000
Si       0.70542217       1.93466558       1.24685460       0.00000000
Si       1.48305790      -1.46100124      -1.22707207       0.00000000
H       -2.47449989      -0.45173799       1.96606792       0.00000000
Si       2.65950542       2.58106907       0.01592538       0.00000000
Si      -2.64264527       2.64209141      -0.06142227       0.00000000
Si      -0.22993335      -2.50628168       2.77066463       0.00000000
Si       0.06986781       2.56204235      -2.82367129       0.00000000
Si       0.08086356      -2.86759389      -2.59449199       0.00000000
