10
Lattice="16.2900001489832 0.0 0.0 0.0 16.2900001489832 0.0 0.0 0.0 29.22087183550747" Properties=species:S:1:pos:R:3:initial_magmoms:R:1 pbc="T T T"
Si      -1.35552349      -0.67036609      -0.80512268       0.00000000
Si       1.73565065       0.11828169      -0.08976652       0.00000000
Si      -0.18393039       2.82888885       0.50949512       0.00000000
H       -0.46284777       0.56782054       2.88018445       0.00000000
Si       2.12571470       2.36042102       0.25433847       0.00000000
Si      -1.21976263       1.76251286       2.36358866       0.00000000
Si       2.29690631       0.31876272      -2.32089697       0.00000000
Si      -2.60170850      -1.97288192       0.62851173       0.00000000
Si       2.74680354      -1.54882063       1.19276677       0.00000000
Si      -0.77571352      -2.49002426      -2.14238666       0.00000000
