10
Lattice="16.2900001489832 0.0 0.0 0.0 16.2900001489832 0.0 0.0 0.0 29.22087183550747" Properties=species:S:1:pos:R:3:initial_magmoms:R:1 pbc="T T T"
Si      -1.60215409      -1.27185805      -1.16740305       0.00000000
Si       1.46020303      -1.35580042       1.32011133       0.00000000
Si       0.99826750       0.34684668      -2.15293540       0.00000000
Si      -1.32185206       1.52998939       1.36692316       0.00000000
Si       2.54286902      -2.60599277      -0.51881658       0.00000000
Si      -2.66877443       0.35215722      -2.57447569       0.00000000
Si      -2.83947735      -2.54000198       0.37575119       0.00000000
Si       0.07411950      -2.64471410       2.80620305       0.00000000
Si      -0.70674166       1.19413846      -3.63639140       0.00000000
Si       2.69369813       1.91442688      -2.11135409       0.00000000
