10
Lattice="16.2900001489832 0.0 0.0 0.0 16.2900001489832 0.0 0.0 0.0 29.22087183550747" Properties=species:S:1:pos:R:3:initial_magmoms:R:1 pbc="T T T"
Si       1.29893203       0.49247114      -0.59049538       0.00000000
H       -0.39017483      -2.48882206       1.34971207       0.00000000
Si       2.26510823      -1.51002111      -1.46881634       0.00000000
Si       2.43574598       1.40958674       1.30909506       0.00000000
H       -0.74145728      -1.49431755      -2.62739469       0.00000000
Si       0.57744793       2.09943567      -2.27145525       0.00000000
Si      -1.70792507      -2.83834030       0.36718948       0.00000000
Si      -3.23372793       0.80368019       0.49015090       0.00000000
Si      -3.14636466      -1.25192235      -0.62059288       0.00000000
Si       0.70832179       2.46698694       2.60387189       0.00000000
