10
Lattice="16.2900001489832 0.0 0.0 0.0 16.2900001489832 0.0 0.0 0.0 29.22087183550747" Properties=species:S:1:pos:R:3:initial_magmoms:R:1 pbc="T T T"
H        0.75691486      -1.19469232       0.51659579       0.00000000
Si       0.02946861       1.60682932       1.70565151       0.00000000
Si      -2.25914609      -0.46252197      -0.44371894       0.00000000
Si       1.03583224       1.06637599      -1.85409354       0.00000000
H       -2.37446300      -0.32573484      -1.96478220       0.00000000
H        1.21976263      -1.76251286      -2.36358866       0.00000000
Si       2.12089286       2.47355507       0.97565569       0.00000000
Si      -2.48932379      -2.76102471       0.06332163       0.00000000
Si      -2.05667768       2.76470625       1.56591730       0.00000000
Si      -3.56263932       1.13839408       0.76996997       0.00000000
