10
Lattice="16.2900001489832 0.0 0.0 0.0 16.2900001489832 0.0 0.0 0.0 29.22087183550747" Properties=species:S:1:pos:R:3:initial_magmoms:R:1 pbc="T T T"
Si      -1.87326857      -1.39911553      -0.09099379       0.00000000
Si      -1.14960160       1.87061330      -0.87519433       0.00000000
Si      -0.09943416       0.26972982       2.40674789       0.00000000
Si       1.73909598      -1.12516660      -1.29395865       0.00000000
H        2.76936519       1.52247970      -0.45087805       0.00000000
Si      -2.58115052       2.14523012       0.98348688       0.00000000
Si      -1.25222860      -3.33363450       1.11866264       0.00000000
Si      -3.69392043       0.09356976       0.58552783       0.00000000
Si       0.46524240       3.44256573      -1.46066372       0.00000000
Si       0.52820000      -2.40969827      -2.86411297       0.00000000
