10
Lattice="16.2900001489832 0.0 0.0 0.0 16.2900001489832 0.0 0.0 0.0 29.22087183550747" Properties=species:S:1:pos:R:3:initial_magmoms:R:1 pbc="T T T"
H        1.35552349       0.67036609       0.80512268       0.00000000
Si      -1.24618501      -1.30251583       1.43363441       0.00000000
Si       0.57980998      -1.81965818      -1.33726398       0.00000000
Si      -1.19943271       1.61150455      -1.24232537       0.00000000
Si       3.09117414       0.78864778       0.71535616       0.00000000
H       -2.23870214       2.10714410       1.20392914       0.00000000
Si      -3.23524290      -1.09243999       0.05911382       0.00000000
Si       0.68958829      -0.76711240      -3.43108555       0.00000000
Si      -0.34692813       3.64703781      -0.42548511       0.00000000
Si      -0.71083045       1.08701542      -3.50974814       0.00000000
