10
Lattice="16.2900001489832 0.0 0.0 0.0 16.2900001489832 0.0 0.0 0.0 29.22087183550747" Properties=species:S:1:pos:R:3:initial_magmoms:R:1 pbc="T T T"
Si       1.34747623      -1.26035242       1.42659803       0.00000000
Si      -1.35887923       1.41322756       1.28682583       0.00000000
Si       1.59000175       1.26037849      -1.17690276       0.00000000
Si      -0.82323145      -1.75103981      -1.42057356       0.00000000
H       -2.76356595       0.10406704      -1.89486542       0.00000000
Si       2.55381590      -2.41585101      -0.20178181       0.00000000
Si       3.24332274      -0.49896108      -1.50149404       0.00000000
Si      -2.74940994       0.04445378       2.56581755       0.00000000
Si      -0.05051529      -2.71871469       2.61423653       0.00000000
Si      -2.59911839       2.74483733      -0.16720475       0.00000000
