10
Lattice="16.2900001489832 0.0 0.0 0.0 16.2900001489832 0.0 0.0 0.0 29.22087183550747" Properties=species:S:1:pos:R:3:initial_magmoms:R:1 pbc="T T T"
Si       1.25996635       1.32309010      -1.46805660       0.00000000
Si      -1.38078928       1.32286204       1.45178058       0.00000000
Si       1.38088702      -1.33076269       1.47463130       0.00000000
Si      -1.38745189      -1.34853508      -1.47407610       0.00000000
Si      -2.21982203      -0.65420641       2.53251452       0.00000000
Si      -0.48832533      -2.41232585       2.50563132       0.00000000
Si       2.58522302       2.64038096      -0.02250007       0.00000000
Si       2.66714543      -0.05932818      -2.75754445       0.00000000
Si       2.68597667      -2.76704875       0.06039954       0.00000000
Si      -0.17832663       2.65637774      -2.80102511       0.00000000
