10
Lattice="16.2900001489832 0.0 0.0 0.0 16.2900001489832 0.0 0.0 0.0 29.22087183550747" Properties=species:S:1:pos:R:3:initial_magmoms:R:1 pbc="T T T"
H       -1.44323048       0.77450806       0.48892363       0.00000000
Si       0.80008336       0.85032172      -2.05916562       0.00000000
Si       1.56333502       0.75880450       1.64750198       0.00000000
Si      -0.86898843      -2.25083819      -0.04470793       0.00000000
Si      -3.21530394       0.98714143       0.23256892       0.00000000
Si      -1.80544515      -2.37662957       2.12415284       0.00000000
Si       3.16672716       0.80627356      -1.69685603       0.00000000
Si       0.59715883       2.76129675       2.52582294       0.00000000
H        0.24265584       3.78553539      -0.52603413       0.00000000
Si       3.52536780       1.60078573       0.58558627       0.00000000
