10
Lattice="16.2900001489832 0.0 0.0 0.0 16.2900001489832 0.0 0.0 0.0 29.22087183550747" Properties=species:S:1:pos:R:3:initial_magmoms:R:1 pbc="T T T"
Si      -1.38756592      -1.13427271       1.57416343       0.00000000
Si      -1.91505242       0.76875769      -1.26391959       0.00000000
Si       1.08025507       1.51593112       1.55421726       0.00000000
Si       1.65693737      -1.42459309      -1.15942575       0.00000000
Si      -2.53863362      -2.67335192       0.22783514       0.00000000
Si      -2.94045906      -1.46616517      -1.75483024       0.00000000
Si       2.80155423      -2.61873155       0.56446543       0.00000000
Si       2.22239585       3.18300087       0.36670032       0.00000000
H        1.71628184      -0.08669538      -3.50846242       0.00000000
Si      -0.14732676      -2.46588248       3.02819401       0.00000000
