10
Lattice="16.2900001489832 0.0 0.0 0.0 16.2900001489832 0.0 0.0 0.0 29.22087183550747" Properties=species:S:1:pos:R:3:initial_magmoms:R:1 pbc="T T T"
Si       1.14214078       1.66706975      -1.18751695       0.00000000
Si      -1.37165059       1.35783667       1.37213909       0.00000000
Si       1.40830309      -1.23520555       1.45024356       0.00000000
Si      -1.08025507      -1.51593112      -1.55421726       0.00000000
Si      -2.46782099      -2.65020383       0.01994617       0.00000000
Si      -2.58615155       2.61830801      -0.19563958       0.00000000
Si       2.48849300       0.34222032      -2.74479247       0.00000000
Si      -0.57889774       3.46582785      -1.25229787       0.00000000
Si       2.88126120      -2.48813462       0.16578754       0.00000000
Si       0.00641826       2.78562261       2.70484169       0.00000000
