10
Lattice="16.2900001489832 0.0 0.0 0.0 16.2900001489832 0.0 0.0 0.0 29.22087183550747" Properties=species:S:1:pos:R:3:initial_magmoms:R:1 pbc="T T T"
Si      -0.51432417       1.12927168       0.85021049       0.00000000
H       -0.83450413      -0.58432231      -2.04984416       0.00000000
H        2.22454613      -0.35051193       1.36493614       0.00000000
H        1.44796924      -0.14848335      -2.27466955       0.00000000
Si       1.72085933      -2.26838252      -0.06121773       0.00000000
Si      -2.00555151       2.06066873      -0.68581386       0.00000000
Si      -1.80787236      -0.01062108       2.48178709       0.00000000
Si       1.30416112       2.52249023       1.44044288       0.00000000
Si      -3.01876835      -1.29515275       0.91163276       0.00000000
Si       2.25707726       1.09941211      -2.50455015       0.00000000
