10
Lattice="16.2900001489832 0.0 0.0 0.0 16.2900001489832 0.0 0.0 0.0 29.22087183550747" Properties=species:S:1:pos:R:3:initial_magmoms:R:1 pbc="T T T"
Si       1.24618501       1.30251583      -1.43363441       0.00000000
Si      -1.10737792       0.97437007       1.79839856       0.00000000
Si       0.32215104      -2.31741542      -0.05914304       0.00000000
Si      -1.98905789       0.21007584      -1.37452059       0.00000000
Si      -3.07304337       0.15389163       0.69721000       0.00000000
Si       0.17835921      -2.20322252      -2.41452064       0.00000000
H        2.73419508      -0.63500050       1.76780430       0.00000000
H        2.60170850       1.97288192      -0.62851173       0.00000000
Si       1.82599499      -0.51714234      -2.77089839       0.00000000
H       -0.99251713       3.40965993      -0.22970527       0.00000000
