10
Lattice="16.2900001489832 0.0 0.0 0.0 16.2900001489832 0.0 0.0 0.0 29.22087183550747" Properties=species:S:1:pos:R:3:initial_magmoms:R:1 pbc="T T T"
Si       1.21450096      -1.26047134       1.56777867       0.00000000
Si       2.00725382       0.84751984      -1.05665828       0.00000000
Si      -1.32152626       1.47802429       1.40781777       0.00000000
Si      -1.40517541      -1.47400066      -1.35024973       0.00000000
Si       2.58615155      -2.61830801       0.19563958       0.00000000
Si      -2.85376368      -0.04580748      -2.62100701       0.00000000
Si      -2.84182311      -2.64789065       0.07715187       0.00000000
Si       2.59256981       0.16731459       2.90048127       0.00000000
Si       2.69045642       2.83291248       0.19257431       0.00000000
Si      -2.65549808       2.87544567      -0.00883055       0.00000000
