10
Lattice="16.2900001489832 0.0 0.0 0.0 16.2900001489832 0.0 0.0 0.0 29.22087183550747" Properties=species:S:1:pos:R:3:initial_magmoms:R:1 pbc="T T T"
Si       0.80410699      -0.23354973      -2.20281542       0.00000000
Si       1.79121584      -1.10526022       1.10957495       0.00000000
Si      -1.89636779      -1.43969392       0.10788346       0.00000000
Si      -0.84784564       1.85518667       1.25693580       0.00000000
Si      -2.08516889       0.58704274       2.80009004       0.00000000
Si       0.63016237      -2.43892253       2.61836544       0.00000000
Si       3.27613080       1.63896949      -0.20968898       0.00000000
Si      -1.00841617      -3.35850933       1.13745166       0.00000000
Si       0.09997173      -2.45016263      -2.77010943       0.00000000
Si       3.29717748       0.52105194       1.90552227       0.00000000
