10
Lattice="16.2900001489832 0.0 0.0 0.0 16.2900001489832 0.0 0.0 0.0 29.22087183550747" Properties=species:S:1:pos:R:3:initial_magmoms:R:1 pbc="T T T"
Si       1.68699242       0.64534465      -1.47866378       0.00000000
Si      -0.08420301       1.20622841       2.03599347       0.00000000
Si       0.25967889      -2.27576189       0.74270690       0.00000000
Si      -1.85342735       0.87604363      -1.38588751       0.00000000
H        2.61078203      -0.58759660       1.04932151       0.00000000
Si       1.52676397      -0.91553059      -3.20181859       0.00000000
Si       1.01753857       2.86291866      -2.10372745       0.00000000
Si      -2.37894275       1.51199383       2.44911815       0.00000000
Si      -0.22607262      -2.03724371       3.16538016       0.00000000
Si       1.49297851       2.92403874       1.89929823       0.00000000
