10
Lattice="16.2900001489832 0.0 0.0 0.0 16.2900001489832 0.0 0.0 0.0 29.22087183550747" Properties=species:S:1:pos:R:3:initial_magmoms:R:1 pbc="T T T"
Si      -0.16022844      -1.56087523      -1.72315481       0.00000000
Si      -1.68699242      -0.64534465       1.47866378       0.00000000
Si       2.29926836      -0.47451141       0.37516677       0.00000000
Si      -0.66945385       2.21757401      -0.62506367       0.00000000
H        1.12622545      -1.02565099      -2.29772482       0.00000000
H        0.92378962      -1.23294124       2.52798529       0.00000000
H        3.14680449      -0.44230608      -0.98924340       0.00000000
H        1.48797748       0.54701348      -3.12283457       0.00000000
Si      -3.54041976       0.23069898       0.09277627       0.00000000
Si       3.15589431       1.45135268       1.60253105       0.00000000
