10
Lattice="16.2900001489832 0.0 0.0 0.0 16.2900001489832 0.0 0.0 0.0 29.22087183550747" Properties=species:S:1:pos:R:3:initial_magmoms:R:1 pbc="T T T"
Si       1.81804547      -1.33786513       0.57708300       0.00000000
Si      -1.95139541      -0.72523081      -1.11895485       0.00000000
Si       0.74091808       1.77310136      -1.37975113       0.00000000
Si      -0.52668828       0.76735675       2.30719238       0.00000000
Si       1.86618242       0.01358586       2.51243978       0.00000000
Si      -2.87986026       1.38482920      -0.67891774       0.00000000
Si      -1.28024740       2.93250954      -1.50475802       0.00000000
Si      -1.16066251      -1.39185019       3.17551980       0.00000000
Si      -2.87622759       1.50074884       1.70468722       0.00000000
Si      -1.35975889      -1.58330656      -3.27104283       0.00000000
