10
Lattice="16.2900001489832 0.0 0.0 0.0 16.2900001489832 0.0 0.0 0.0 29.22087183550747" Properties=species:S:1:pos:R:3:initial_magmoms:R:1 pbc="T T T"
Si      -1.28645389      -0.53522424       0.57457000       0.00000000
H        0.36175203       1.57266447      -0.82510976       0.00000000
H        1.30251583      -0.29160729      -1.56004391       0.00000000
H        2.02057904       0.58334491       1.30848142       0.00000000
Si      -1.12622545       1.02565099       2.29772482       0.00000000
Si      -0.60690025      -2.79107976       0.64446633       0.00000000
Si       1.17304291       0.55113958       2.67289159       0.00000000
Si       0.98907994      -1.35931906      -2.56497891       0.00000000
Si      -0.14916753       2.70938215      -1.63917403       0.00000000
Si      -3.05373972      -0.28769769      -0.95353549       0.00000000
