10
Lattice="16.2900001489832 0.0 0.0 0.0 16.2900001489832 0.0 0.0 0.0 29.22087183550747" Properties=species:S:1:pos:R:3:initial_magmoms:R:1 pbc="T T T"
Si      -0.80410699       0.23354973       2.20281542       0.00000000
Si       2.30697353       0.53426313      -0.07781518       0.00000000
Si      -0.37414872       1.55808964      -1.77177834       0.00000000
Si      -0.70413526      -2.21661290      -0.56729401       0.00000000
H        2.17528517      -2.33583941       0.57763819       0.00000000
Si       1.96455773       1.83340694      -2.05954549       0.00000000
Si      -2.57165345      -1.47364228      -1.90181122       0.00000000
Si       0.98710885      -0.87171049       3.31239037       0.00000000
Si       2.47202381       1.87251923       1.99312645       0.00000000
Si      -1.50649921       0.22230963      -3.38477047       0.00000000
