10
Lattice="16.2900001489832 0.0 0.0 0.0 16.2900001489832 0.0 0.0 0.0 29.22087183550747" Properties=species:S:1:pos:R:3:initial_magmoms:R:1 pbc="T T T"
Si       1.96203278       0.84198124      -1.06191570       0.00000000
Si      -0.96617620       2.00249225       0.87832097       0.00000000
Si      -1.56333502      -0.75880450      -1.64750198       0.00000000
Si       1.06662034      -1.62401527       1.40707264       0.00000000
H       -2.26510823       1.51002111       1.46881634       0.00000000
H       -3.00656551       0.01570356      -1.15857835       0.00000000
Si       3.66704193      -0.00531054       0.42154030       0.00000000
Si       1.60339213       0.04746906      -3.34435800       0.00000000
Si       2.66877443      -0.35215722       2.57447569       0.00000000
Si      -0.76325167       0.09151722      -3.70666759       0.00000000
