10
Lattice="16.2900001489832 0.0 0.0 0.0 16.2900001489832 0.0 0.0 0.0 29.22087183550747" Properties=species:S:1:pos:R:3:initial_magmoms:R:1 pbc="T T T"
Si       1.41257107       1.42516324       1.17841932       0.00000000
Si       1.44428770      -1.33032286      -1.28864045       0.00000000
Si      -1.33226137       1.35472528      -1.40058561       0.00000000
Si      -1.28886481      -1.36765954       1.48439107       0.00000000
Si       2.66940974       0.10555920       2.62251481       0.00000000
Si      -2.61412148      -2.68495040       0.03883454       0.00000000
Si       0.06962346      -2.66610287      -2.65518374       0.00000000
Si      -2.62207100       2.71849151       0.04388975       0.00000000
Si       0.20623140       2.66299148       2.75684315       0.00000000
Si       0.10857285       2.79484275      -2.63176321       0.00000000
