10
Lattice="16.2900001489832 0.0 0.0 0.0 16.2900001489832 0.0 0.0 0.0 29.22087183550747" Properties=species:S:1:pos:R:3:initial_magmoms:R:1 pbc="T T T"
Si       1.51733206      -1.21967629      -1.37411150       0.00000000
Si      -1.06743484       1.78170248      -1.24477992       0.00000000
Si      -1.98633746      -0.78746187       1.14770818       0.00000000
Si       1.29549484       0.61098904       1.96054517       0.00000000
H       -1.47541789      -1.92417954       1.96177245       0.00000000
H        2.27947601       1.69350842       1.49634240       0.00000000
H       -2.36618768      -2.55220319      -0.86999302       0.00000000
Si      -0.00801468      -2.27252018      -2.84710643       0.00000000
Si      -2.32446899       0.83497654       2.78042440       0.00000000
Si      -0.74381770       3.71226297       0.22383188       0.00000000
