10
Lattice="16.2900001489832 0.0 0.0 0.0 16.2900001489832 0.0 0.0 0.0 29.22087183550747" Properties=species:S:1:pos:R:3:initial_magmoms:R:1 pbc="T T T"
Si      -2.30697353      -0.53426313       0.07781518       0.00000000
Si      -0.34241580       1.29914380      -1.98173031       0.00000000
Si       1.76008565      -1.33020883      -0.97396088       0.00000000
Si       0.16505028       1.33825609       2.07094163       0.00000000
H       -0.13168836      -2.87010255       0.65545338       0.00000000
Si      -2.68112225       1.02382651      -1.69396316       0.00000000
Si       2.29273607       2.26408196       1.74904450       0.00000000
Si       3.27860688      -1.47799171       0.76614204       0.00000000
Si       0.84157399       3.28153908      -1.44692991       0.00000000
Si      -0.01637145      -3.00688968       2.17651664       0.00000000
