10
Lattice="16.2900001489832 0.0 0.0 0.0 16.2900001489832 0.0 0.0 0.0 29.22087183550747" Properties=species:S:1:pos:R:3:initial_magmoms:R:1 pbc="T T T"
Si       1.25683867      -1.31960404       1.44409549       0.00000000
Si      -1.41257107      -1.42516324      -1.17841932       0.00000000
Si      -1.20633967       1.23782824       1.57842383       0.00000000
Si       1.43803234       1.36933741      -1.28212419       0.00000000
Si       2.36260551       0.42772653       2.55741070       0.00000000
Si       0.66186271       2.15943500       2.72271317       0.00000000
Si      -2.10380465      -0.46297809       2.96661979       0.00000000
Si       0.03171663      -2.75548611      -2.46705977       0.00000000
Si       0.04338027       2.78765886      -2.53131646       0.00000000
Si      -2.74483245      -0.07043796      -2.57900493       0.00000000
