10
Lattice="16.2900001489832 0.0 0.0 0.0 16.2900001489832 0.0 0.0 0.0 29.22087183550747" Properties=species:S:1:pos:R:3:initial_magmoms:R:1 pbc="T T T"
Si      -1.27053856       1.16043445      -1.55224193       0.00000000
Si      -1.02468988      -1.55983267       1.51577428       0.00000000
Si       1.57477060      -1.47141055      -1.17663685       0.00000000
Si      -0.02977812       2.09515466       1.39567650       0.00000000
H       -2.24456654       2.05454369      -0.80459671       0.00000000
Si       1.07802334       0.87171049       3.00963292       0.00000000
Si       3.03342609      -0.08943210       1.98593811       0.00000000
Si       2.91721323      -2.04975443       0.67900540       0.00000000
Si       0.22993335       2.50628168      -2.77066463       0.00000000
Si      -0.61902001      -0.64521433       3.65769341       0.00000000
