10
Lattice="16.2900001489832 0.0 0.0 0.0 16.2900001489832 0.0 0.0 0.0 29.22087183550747" Properties=species:S:1:pos:R:3:initial_magmoms:R:1 pbc="T T T"
H        0.84753613       0.03220533      -1.36441017       0.00000000
Si      -2.29926836       0.47451141      -0.37516677       0.00000000
Si       0.85662595       1.92586409       1.22736428       0.00000000
Si       0.31444587      -2.44711640       0.47945607       0.00000000
H       -1.37547874      -0.75842983       2.15281851       0.00000000
H       -1.17304291      -0.55113958      -2.67289159       0.00000000
Si      -2.45949680      -1.08636382      -2.09832159       0.00000000
Si       2.63694377      -0.23291442      -2.31438071       0.00000000
H       -0.81129088       1.02152490      -3.49800135       0.00000000
Si       1.99215299      -2.29109078       2.19250046       0.00000000
