10
Lattice="16.2900001489832 0.0 0.0 0.0 16.2900001489832 0.0 0.0 0.0 29.22087183550747" Properties=species:S:1:pos:R:3:initial_magmoms:R:1 pbc="T T T"
Si       1.68594986      -0.96301594      -1.27163390       0.00000000
Si      -1.30171762      -1.43715268       1.34725752       0.00000000
Si      -1.71553250       0.84647728      -1.45855982       0.00000000
Si       1.28487376       1.37810143       1.51337817       0.00000000
H       -2.36527544      -1.80206498       0.32405947       0.00000000
Si      -3.28566045       1.07093719       0.39956620       0.00000000
Si       3.08775324      -1.82311166       0.35202384       0.00000000
Si       3.46397079       0.32350311       1.28238718       0.00000000
Si      -2.67193469       0.00552231       2.61082646       0.00000000
Si       0.86007943      -2.28983645      -2.95332430       0.00000000
