10
Lattice="16.2900001489832 0.0 0.0 0.0 16.2900001489832 0.0 0.0 0.0 29.22087183550747" Properties=species:S:1:pos:R:3:initial_magmoms:R:1 pbc="T T T"
Si      -2.02116548       1.15940818      -0.12500689       0.00000000
Si       0.66499039      -0.73399483      -2.13519833       0.00000000
Si       1.54958626       1.53134146       0.91014250       0.00000000
Si      -0.74091808      -1.77310136       1.37975113       0.00000000
H       -1.70772959       2.22711995       0.87992811       0.00000000
Si       3.40270410      -0.04786002       1.39535507       0.00000000
Si      -2.69231348      -2.49833216       0.26079628       0.00000000
Si      -3.62077833      -0.38827215       0.70083339       0.00000000
Si       1.07712739      -3.11096649       1.95683412       0.00000000
Si      -1.20321199      -1.65560159      -3.27948767       0.00000000
