10
Lattice="16.2900001489832 0.0 0.0 0.0 16.2900001489832 0.0 0.0 0.0 29.22087183550747" Properties=species:S:1:pos:R:3:initial_magmoms:R:1 pbc="T T T"
Si       0.93206494      -0.89083495       1.99692516       0.00000000
Si       1.56269971       0.96971113      -1.54099190       0.00000000
Si      -0.95935069      -1.73159444      -1.37463747       0.00000000
Si      -1.78851170       1.31588992       1.02585715       0.00000000
H       -0.02078604      -0.24768945       3.25260446       0.00000000
H       -2.92102509      -1.86144203       0.97282127       0.00000000
Si      -2.34250854      -0.41936976      -2.80122966       0.00000000
Si       2.84926764       2.46599651      -0.32180946       0.00000000
Si       0.35161965       2.39964734      -2.95040221       0.00000000
Si      -3.51570523      -0.33057297       1.50566386       0.00000000
