10
Lattice="16.2900001489832 0.0 0.0 0.0 16.2900001489832 0.0 0.0 0.0 29.22087183550747" Properties=species:S:1:pos:R:3:initial_magmoms:R:1 pbc="T T T"
Si       2.30705498      -0.30328722       0.25755276       0.00000000
Si      -0.58552777       1.84658555      -1.34979973       0.00000000
Si      -0.82521883      -1.64147490      -1.49172551       0.00000000
Si      -0.68716108       0.48423654       2.24942271       0.00000000
H        2.67403610      -0.88601311      -1.11334444       0.00000000
Si      -1.06039756       3.34306641       0.37911159       0.00000000
Si      -2.91836982      -0.81648739      -2.03421099       0.00000000
Si      -1.50412087      -1.59904270       3.01915892       0.00000000
Si       0.45020836      -1.32682866      -3.49282925       0.00000000
Si      -0.78392368      -3.68440707      -0.35474138       0.00000000
