10
Lattice="16.2900001489832 0.0 0.0 0.0 16.2900001489832 0.0 0.0 0.0 29.22087183550747" Properties=species:S:1:pos:R:3:initial_magmoms:R:1 pbc="T T T"
Si      -1.45758034      -1.31663926      -1.28659060       0.00000000
Si      -1.37968156       1.38543193       1.32263309       0.00000000
Si       1.34156296       1.26760636      -1.47307090       0.00000000
Si       1.35366643      -1.43066926       1.32421978       0.00000000
Si       0.04916322       2.76400578       2.57460426       0.00000000
Si      -2.84144518       0.11114667      -2.50497677       0.00000000
Si      -2.72611849      -0.01407456       2.67819225       0.00000000
Si      -0.12287547       2.75851605      -2.65154866       0.00000000
Si       2.75814138      -0.06688674       2.66802339       0.00000000
Si       2.59245578      -0.26744922      -2.83327327       0.00000000
