10
Lattice="16.2900001489832 0.0 0.0 0.0 16.2900001489832 0.0 0.0 0.0 29.22087183550747" Properties=species:S:1:pos:R:3:initial_magmoms:R:1 pbc="T T T"
Si      -1.34222759       1.39952278       1.30690349       0.00000000
Si      -1.41247007      -1.36622602      -1.28530927       0.00000000
Si       1.29675243      -1.32914998       1.46621569       0.00000000
Si       1.34643693       1.39950649      -1.35555917       0.00000000
Si       0.10191676       2.75304261       2.57874194       0.00000000
Si      -2.78025994       0.03018537       2.58902769       0.00000000
Si      -0.07105698      -2.71774217      -2.65557530       0.00000000
Si      -2.79431821       0.01734885      -2.59066990       0.00000000
Si       2.71127830      -2.68747535       0.10989970       0.00000000
Si       2.72611849       0.01407456      -2.67819225       0.00000000
