10
Lattice="16.2900001489832 0.0 0.0 0.0 16.2900001489832 0.0 0.0 0.0 29.22087183550747" Properties=species:S:1:pos:R:3:initial_magmoms:R:1 pbc="T T T"
Si      -1.35466338      -1.30983004      -1.39112681       0.00000000
Si      -1.42562262       1.31763295       1.33194578       0.00000000
Si       1.38674816      -1.36319608       1.33147825       0.00000000
Si       1.27336976       1.35443206      -1.45373545       0.00000000
Si       2.60352973      -2.66881842      -0.27628334       0.00000000
Si       2.65593466       2.70770753      -0.08357169       0.00000000
Si      -0.07764791       2.67748958       2.70453779       0.00000000
Si      -2.71712641      -2.68706973       0.01142536       0.00000000
Si      -2.70559309       0.08117307      -2.72250278       0.00000000
Si       0.03555455      -2.73466260       2.72180733       0.00000000
