10
Lattice="16.2900001489832 0.0 0.0 0.0 16.2900001489832 0.0 0.0 0.0 29.22087183550747" Properties=species:S:1:pos:R:3:initial_magmoms:R:1 pbc="T T T"
Si      -0.47249145      -2.15301674       0.77464531       0.00000000
Si      -2.13703625       1.06533343      -0.14718553       0.00000000
Si       0.69374224       0.31055256      -2.28749751       0.00000000
Si       1.86035060       0.51005619       1.45905657       0.00000000
Si       0.23315877       2.58932810      -2.16748739       0.00000000
Si      -1.30067506      -3.09967263      -1.23116299       0.00000000
Si       1.62065953      -2.97800425       1.31713080       0.00000000
Si       2.95585474       0.39755745      -2.08932156       0.00000000
Si      -2.02725794       2.11787921      -2.24100710       0.00000000
Si       3.46333548       1.35752716      -0.04275014       0.00000000
