10
Lattice="16.2900001489832 0.0 0.0 0.0 16.2900001489832 0.0 0.0 0.0 29.22087183550747" Properties=species:S:1:pos:R:3:initial_magmoms:R:1 pbc="T T T"
Si      -1.38228796       1.40142708      -1.31289377       0.00000000
Si       1.27111686      -1.25729479      -1.55460882       0.00000000
Si       1.37039300       1.35383422       1.39748820       0.00000000
Si      -1.38595321      -1.43721784       1.30003659       0.00000000
Si       2.69431715      -2.64684809      -0.28022816       0.00000000
Si       0.08441299      -2.81631297       2.53935220       0.00000000
Si      -2.77324221       0.00241092      -2.59886051       0.00000000
Si      -2.68498298      -0.13965417       2.73513205       0.00000000
Si       2.72158661       2.72530073       0.00715911       0.00000000
Si      -0.16775442      -2.57048057      -2.88444486       0.00000000
