10
Lattice="16.2900001489832 0.0 0.0 0.0 16.2900001489832 0.0 0.0 0.0 29.22087183550747" Properties=species:S:1:pos:R:3:initial_magmoms:R:1 pbc="T T T"
Si      -1.37290492      -0.77918329      -1.72195676       0.00000000
Si       1.55484793       1.14179869      -1.35134844       0.00000000
Si       1.23212674      -1.67690891       1.18444642       0.00000000
Si      -1.71095501       1.26550495       1.14556016       0.00000000
H        2.87259817       1.49131693      -0.36882584       0.00000000
Si      -2.06982371       1.96156037      -1.68987224       0.00000000
Si       0.35401428      -2.21894237      -2.58294975       0.00000000
Si      -0.09246204       2.45860085       2.38316372       0.00000000
Si       2.15910105      -0.66531619      -2.71070340       0.00000000
Si       0.11640834       2.72821664      -2.33913079       0.00000000
