10
Lattice="16.2900001489832 0.0 0.0 0.0 16.2900001489832 0.0 0.0 0.0 29.22087183550747" Properties=species:S:1:pos:R:3:initial_magmoms:R:1 pbc="T T T"
H       -0.95285098       0.64314550       1.25567930       0.00000000
Si      -0.22815774      -2.30412278       0.51963476       0.00000000
Si       2.16305138       0.63656434       0.74928160       0.00000000
Si      -0.93206494       0.89083495      -1.99692516       0.00000000
Si      -1.19190673       0.49539519       2.97769450       0.00000000
Si      -0.72962911      -1.85391605       2.82609662       0.00000000
Si       2.03486537      -2.92785060      -0.00400326       0.00000000
Si      -2.72057663       2.20672487      -0.97106801       0.00000000
Si       3.14051655      -1.43790202       1.34623479       0.00000000
H        0.86055184      -1.91796833       3.16555549       0.00000000
