10
Lattice="16.2900001489832 0.0 0.0 0.0 16.2900001489832 0.0 0.0 0.0 29.22087183550747" Properties=species:S:1:pos:R:3:initial_magmoms:R:1 pbc="T T T"
Si       1.56828718       1.66487060      -0.59107980       0.00000000
Si      -1.78663835       0.57471121      -1.52924511       0.00000000
Si      -0.35098434       0.30320577       2.38921536       0.00000000
Si       0.88870096      -2.27202985      -0.03637999       0.00000000
H       -1.56947635      -2.01331533       1.06404883       0.00000000
Si      -1.76251286      -1.62786786       2.53999506       0.00000000
H        0.80482375       1.58464234      -3.12824043       0.00000000
Si       1.99620920      -2.26358837       2.12245803       0.00000000
H       -3.51969400       0.28717641       1.37224136       0.00000000
Si       1.71866018      -0.27469827       3.41168289       0.00000000
