10
Lattice="10.86 0.0 0.0 0.0 10.86 0.0 0.0 0.0 10.86" Properties=species:S:1:pos:R:3:initial_magmoms:R:1 pbc="T T T"
Si      -1.25831562      -1.30997664       1.36818624       0.00000000
Si      -1.25831562       1.40502336      -1.34681376       0.00000000
Si       1.45668438       1.40502336       1.36818624       0.00000000
Si      -2.53209588      -2.50495674       0.13715094       0.00000000
Si       2.66566302       0.08019024      -2.62992276       0.00000000
Si      -2.61581562       0.04752336       2.72568624       0.00000000
Si      -2.61581562       2.76252336       0.01068624       0.00000000
Si       0.09918438      -2.66747664       2.72568624       0.00000000
Si      -2.55388104      -0.04971708      -2.88685950       0.00000000
Si       0.09918438       2.76252336      -2.70431376       0.00000000
