10
Lattice="10.86 0.0 0.0 0.0 10.86 0.0 0.0 0.0 10.86" Properties=species:S:1:pos:R:3:initial_magmoms:R:1 pbc="T T T"
Si      -1.21614624      -1.22757096       1.44963624       0.00000000
Si      -1.21614624       1.48742904      -1.26536376       0.00000000
Si       1.49885376      -1.22757096      -1.26536376       0.00000000
Si      -2.57364624      -2.58507096       0.09213624       0.00000000
Si      -2.57364624       0.12992904      -2.62286376       0.00000000
Si       0.14135376      -2.58507096      -2.62286376       0.00000000
Si      -2.38918914       2.84056332      -0.14260266       0.00000000
Si       2.70523686       0.00392046       2.60208858       0.00000000
Si       0.14135376      -2.58507096       2.80713624       0.00000000
Si       2.85635376      -2.58507096       0.09213624       0.00000000
