10
Lattice="16.28999089631971 0.0 0.0 0.0 16.28999089631971 0.0 0.0 0.0 34.51530692428229" Properties=species:S:1:pos:R:3:initial_magmoms:R:1 pbc="T T T"
Si       2.09952036      -0.97150302       0.39116219       0.00000000
Si      -0.95443110      -1.30297194      -1.70298620       0.00000000
Si       0.58805271       2.10794229      -0.89539659       0.00000000
Si      -1.75651812      -0.12559590       1.59771445       0.00000000
Si       2.17730511       0.06090831       2.49884059       0.00000000
Si       0.73772523       1.46142477      -3.20585253       0.00000000
Si      -1.03622319       3.46300380       0.18614115       0.00000000
Si      -1.18710117      -1.96849989       2.84799763       0.00000000
Si       0.22224447      -3.35033172      -1.63971960       0.00000000
Si      -3.76705340      -0.56962872       0.44186521       0.00000000
