10
Lattice="16.28999089631971 0.0 0.0 0.0 16.28999089631971 0.0 0.0 0.0 34.51530692428229" Properties=species:S:1:pos:R:3:initial_magmoms:R:1 pbc="T T T"
Si      -1.80273189      -0.92167191       1.19681345       0.00000000
Si       0.02546290       1.88684205      -1.41757896       0.00000000
Si       0.84901037       1.82564541       1.34288577       0.00000000
Si      -0.19195647      -1.36611198      -2.33050934       0.00000000
Si       1.04586035       0.51800571      -3.08542856       0.00000000
Si      -0.46544330      -2.21620563       2.69567601       0.00000000
Si       2.25550525       0.49495536       2.70016645       0.00000000
Si      -2.20199979       2.39232401      -2.07613139       0.00000000
Si       3.55473049      -1.12286970       1.14513711       0.00000000
Si       0.96590903      -3.62097378       1.15136022       0.00000000
