10
Lattice="16.28999089631971 0.0 0.0 0.0 16.28999089631971 0.0 0.0 0.0 34.51530692428229" Properties=species:S:1:pos:R:3:initial_magmoms:R:1 pbc="T T T"
Si       1.28073609       1.03526208       1.62774278       0.00000000
Si      -2.28763728       0.07296291       0.60567494       0.00000000
Si       0.82047843      -2.18284697       0.56425655       0.00000000
Si       0.42251373       1.02670983      -2.14861357       0.00000000
Si       0.62574777      -0.01536147       3.62383313       0.00000000
Si      -2.69995347      -2.21664220       1.22097966       0.00000000
Si      -1.07567757      -3.57170372       0.13944192       0.00000000
Si       0.79109127       3.31364664       1.59650641       0.00000000
Si       3.54287952       0.97940367       0.97191707       0.00000000
Si      -2.45957823       1.85337846       2.23769763       0.00000000
