10
Lattice="16.28999089631971 0.0 0.0 0.0 16.28999089631971 0.0 0.0 0.0 34.51530692428229" Properties=species:S:1:pos:R:3:initial_magmoms:R:1 pbc="T T T"
Si       1.50252444      -1.69521885      -0.50009256       0.00000000
Si       1.31719311       1.87493013       0.54264996       0.00000000
Si      -1.19612583      -1.01234205       1.78437333       0.00000000
Si      -1.00439253       0.41751270      -2.15199607       0.00000000
Si      -1.48996485       2.68061724      -1.80525511       0.00000000
Si       0.60018876       3.45751992      -1.01930661       0.00000000
Si       0.66176496      -2.63531475      -2.46256498       0.00000000
Si       3.48096123       0.92725938       0.76026909       0.00000000
Si      -3.43583793      -0.57756195       1.29370346       0.00000000
Si      -0.70648101      -3.29072661       1.81560970       0.00000000
