10
Lattice="16.28999089631971 0.0 0.0 0.0 16.28999089631971 0.0 0.0 0.0 34.51530692428229" Properties=species:S:1:pos:R:3:initial_magmoms:R:1 pbc="T T T"
Si       1.84951773       1.39878972      -0.15435254       0.00000000
Si      -1.53508815       0.63749286       1.71855261       0.00000000
Si      -0.68914845      -0.46004589      -2.26465410       0.00000000
Si       1.52407611      -1.66283433       0.88421363       0.00000000
Si      -0.19950363      -2.73843045      -2.23341773       0.00000000
Si      -2.39831154      -1.45709163       2.30479542       0.00000000
Si       1.29448485       3.24428382      -1.41164233       0.00000000
Si       3.09578418      -1.98925335      -0.89757106       0.00000000
Si       2.43478485       2.22435063       1.91691219       0.00000000
Si       3.68160516       0.31954464      -1.19757827       0.00000000
