10
Lattice="16.28999089631971 0.0 0.0 0.0 16.28999089631971 0.0 0.0 0.0 34.51530692428229" Properties=species:S:1:pos:R:3:initial_magmoms:R:1 pbc="T T T"
Si      -1.35490446      -1.35519768      -1.38478940       0.00000000
Si       1.35578412       1.36008468      -1.38119981       0.00000000
Si      -1.44226773       1.32403491       1.41882151       0.00000000
Si       1.37798739      -1.35936792       1.48001719       0.00000000
Si       2.70630657      -2.71762812      -0.00390023       0.00000000
Si      -2.70070281      -2.72914515      -0.01311582       0.00000000
Si       2.70980892       2.72608263      -0.01038911       0.00000000
Si      -2.72442105       2.71627605      -0.01173521       0.00000000
Si      -0.00099369      -2.71422351      -2.74617741       0.00000000
Si       2.71590138       0.00052128      -2.74590129       0.00000000
