10
Lattice="16.28999089631971 0.0 0.0 0.0 16.28999089631971 0.0 0.0 0.0 34.51530692428229" Properties=species:S:1:pos:R:3:initial_magmoms:R:1 pbc="T T T"
Si      -2.31901182       0.45857979      -0.06747746       0.00000000
Si      -0.23591178      -1.00903518       2.19810855       0.00000000
Si       0.78087744      -1.56338388      -1.72262542       0.00000000
Si       1.22101695       2.21117202       0.00586761       0.00000000
Si       1.85424183      -0.23213250       2.98405704       0.00000000
Si       2.17059363      -2.99297799      -0.20250142       0.00000000
Si      -2.63756277       1.47499434      -2.14250436       0.00000000
Si       2.00933892      -0.16757523      -3.17471971       0.00000000
Si       0.24966054      -3.27213972       1.85136758       0.00000000
Si      -3.40201989      -1.74400740       0.20792033       0.00000000
