10
Lattice="16.28999089631971 0.0 0.0 0.0 16.28999089631971 0.0 0.0 0.0 34.51530692428229" Properties=species:S:1:pos:R:3:initial_magmoms:R:1 pbc="T T T"
Si       2.27214549      -0.50169942      -0.10430532       0.00000000
Si      -1.54248381      -1.38434049      -1.11425828       0.00000000
Si      -0.06678900       2.11916610      -1.12782280       0.00000000
Si      -1.05005340       1.24535421       1.77412228       0.00000000
Si       0.01099575       3.15157743       0.97985560       0.00000000
Si      -3.18712221      -1.01411766       0.42360660       0.00000000
Si       2.00340936       2.37281769       1.99108562       0.00000000
Si       3.36813669       1.50544035       0.35015798       0.00000000
Si      -1.94406489      -0.25966260      -3.15870459       0.00000000
Si      -3.35341053       1.12216923       1.32901264       0.00000000
