10
Lattice="16.28999089631971 0.0 0.0 0.0 16.28999089631971 0.0 0.0 0.0 34.51530692428229" Properties=species:S:1:pos:R:3:initial_magmoms:R:1 pbc="T T T"
Si      -0.71027658       2.17385163       0.59269718       0.00000000
Si       2.36589444       0.13796001      -0.16298137       0.00000000
Si      -0.81845847      -0.53436087      -2.16518093       0.00000000
Si      -1.07792559      -1.45052676       1.88377747       0.00000000
Si      -2.27561526      -2.77283493      -0.02692195       0.00000000
Si       3.12663744      -1.57361400       1.18328893       0.00000000
Si       0.97601535      -0.13725954      -3.56612350       0.00000000
Si      -1.19738016      -2.88087021      -2.12600603       0.00000000
Si       2.90247075       0.60569478      -2.42815320       0.00000000
Si       3.09865122       1.81781739       1.37840407       0.00000000
