10
Lattice="16.28999089631971 0.0 0.0 0.0 16.28999089631971 0.0 0.0 0.0 34.51530692428229" Properties=species:S:1:pos:R:3:initial_magmoms:R:1 pbc="T T T"
Si       1.70776215       1.54163673      -0.64402147       0.00000000
Si       0.28474920      -0.26585280       2.37399865       0.00000000
Si       0.77177133      -1.93435768      -1.27092334       0.00000000
Si      -2.43254402       0.44268075      -0.28771976       0.00000000
Si       0.75344508       2.38332474      -2.64187210       0.00000000
Si      -0.65832614      -3.61697363      -0.59680451       0.00000000
Si       2.57484627      -0.74819970       2.64984514       0.00000000
Si      -0.97761503      -2.08860932       3.05512410       0.00000000
Si      -1.54363714       2.65512339      -2.33551406       0.00000000
Si       2.29495149       2.84654718       1.28638621       0.00000000
