10
Lattice="16.28999089631971 0.0 0.0 0.0 16.28999089631971 0.0 0.0 0.0 34.51530692428229" Properties=species:S:1:pos:R:3:initial_magmoms:R:1 pbc="T T T"
Si      -1.06580583       1.97539056      -0.55290101       0.00000000
Si      -1.18327302      -1.45518733       1.40932980       0.00000000
Si       1.97182305       0.46920087       1.21134989       0.00000000
Si       0.28906605      -0.81256149      -2.21422721       0.00000000
Si       2.69164557      -0.92004454      -2.08179190       0.00000000
Si      -0.43372125      -3.51200087       0.34180528       0.00000000
Si      -0.84986559      -2.86654220      -1.92730130       0.00000000
Si      -2.68986996       1.21305114      -2.04762173       0.00000000
Si       3.52786014       0.76773141      -0.62697090       0.00000000
Si      -3.40017912      -1.18974015       0.74912064       0.00000000
