10
Lattice="16.28999089631971 0.0 0.0 0.0 16.28999089631971 0.0 0.0 0.0 34.51530692428229" Properties=species:S:1:pos:R:3:initial_magmoms:R:1 pbc="T T T"
Si      -0.69835230      -0.18209939       2.19702826       0.00000000
Si      -0.48456234      -1.73875780      -1.46244889       0.00000000
Si       2.16981171      -0.82847260       0.44390161       0.00000000
Si      -0.37714608       2.17966227      -1.14404500       0.00000000
Si      -2.54552427       1.32139104       1.94003746       0.00000000
Si       1.24383924       0.67721114       3.35759713       0.00000000
Si      -3.53224215       0.25527407      -0.94606509       0.00000000
Si       3.54079440       1.10408244      -0.07734885       0.00000000
Si      -2.34896913       1.71046140      -2.35539489       0.00000000
Si       0.72860283      -1.35042049      -3.45063522       0.00000000
