10
Lattice="16.28999089631971 0.0 0.0 0.0 16.28999089631971 0.0 0.0 0.0 34.51530692428229" Properties=species:S:1:pos:R:3:initial_magmoms:R:1 pbc="T T T"
Si      -0.51719121       1.98102690       1.22833143       0.00000000
Si       2.01088647      -0.64655010      -1.17390076       0.00000000
Si      -1.73423340      -1.07194716      -1.40007969       0.00000000
Si       2.23959807      -0.71477262       1.52568549       0.00000000
Si      -1.65508029       0.44636229       2.65065422       0.00000000
Si       1.94473278       1.40291109      -2.53207885       0.00000000
Si      -3.20450364      -0.83627973       1.35804003       0.00000000
Si       1.12128957      -2.42199720       2.80123768       0.00000000
Si      -0.70683939      -1.86864219      -3.43199695       0.00000000
Si      -1.79652636       3.57094719      -0.39640852       0.00000000
