10
Lattice="16.28999089631971 0.0 0.0 0.0 16.28999089631971 0.0 0.0 0.0 34.51530692428229" Properties=species:S:1:pos:R:3:initial_magmoms:R:1 pbc="T T T"
Si      -1.35887922       1.35242838       1.35917903       0.00000000
Si       1.36010097      -1.36003581       1.35800551       0.00000000
Si      -1.35853713      -1.37288862      -1.35740494       0.00000000
Si       1.36057338       1.35272160      -1.37807272       0.00000000
Si       2.57728977      -0.13115079      -2.80795640       0.00000000
Si       2.71505430       2.70868491      -0.00144964       0.00000000
Si       0.00125433       2.71101438       2.71545877       0.00000000
Si      -2.71376739       2.71349046       0.00224350       0.00000000
Si      -2.71352304      -0.00407250       2.71587296       0.00000000
Si      -2.71438641      -2.71560816      -0.00158771       0.00000000
