10
Lattice="16.28999089631971 0.0 0.0 0.0 16.28999089631971 0.0 0.0 0.0 34.51530692428229" Properties=species:S:1:pos:R:3:initial_magmoms:R:1 pbc="T T T"
Si      -1.66612395      -0.99611721       1.26054665       0.00000000
Si      -0.67362312       0.78651378      -2.07900586       0.00000000
Si       0.95057689       1.73584611       1.30368736       0.00000000
Si       1.59952325      -1.78764831      -0.20817164       0.00000000
Si       1.12247711       2.40117858      -1.94695022       0.00000000
Si       2.90689348       0.90736929      -1.76208614       0.00000000
Si       2.33232889       0.38446029       2.66541017       0.00000000
Si      -0.39495331      -2.35221084       2.67264113       0.00000000
Si      -3.18334197      -1.96657767      -0.26947086       0.00000000
Si       2.77667122      -1.38500838      -2.31115595       0.00000000
