10
Lattice="16.28999089631971 0.0 0.0 0.0 16.28999089631971 0.0 0.0 0.0 34.51530692428229" Properties=species:S:1:pos:R:3:initial_magmoms:R:1 pbc="T T T"
Si       1.35588290      -1.35483183       1.35797099       0.00000000
Si      -1.35767376      -1.35556162      -1.35607265       0.00000000
Si       1.35696187       1.35936629      -1.35614168       0.00000000
Si      -1.35645201       1.35702053       1.36480503       0.00000000
Si      -0.00060273      -2.71268478      -2.71328431       0.00000000
Si       2.71366543      -2.71258704       0.00155319       0.00000000
Si       2.71447342       0.00180004      -2.71304270       0.00000000
Si      -2.71477737      -2.71490022       0.00148416       0.00000000
Si      -2.71583622       0.00200204      -2.71387107       0.00000000
Si       2.71454998       2.71542734       0.00048321       0.00000000
