10
Lattice="16.28999089631971 0.0 0.0 0.0 16.28999089631971 0.0 0.0 0.0 34.51530692428229" Properties=species:S:1:pos:R:3:initial_magmoms:R:1 pbc="T T T"
Si      -1.16497935      -0.00773775       2.01379671       0.00000000
Si      -0.13828581       1.64004462      -1.72107223       0.00000000
Si      -0.98419293      -1.64397051      -1.41913215       0.00000000
Si       2.33709372      -0.37437678       0.58738182       0.00000000
Si       0.95164551      -1.64139669      -2.81434518       0.00000000
Si       2.88302049      -1.46054511      -1.46003281       0.00000000
Si      -3.13642773       1.11125493       1.29318573       0.00000000
Si       1.24405101       3.29787792      -0.81155887       0.00000000
Si       0.81430452       0.57345687      -3.67988602       0.00000000
Si      -0.33431967       1.52573769       3.52698312       0.00000000
