10
Lattice="16.28999089631971 0.0 0.0 0.0 16.28999089631971 0.0 0.0 0.0 34.51530692428229" Properties=species:S:1:pos:R:3:initial_magmoms:R:1 pbc="T T T"
Si       1.35716877      -1.35716877      -1.35766036       0.00000000
Si      -1.35870003      -1.35659862       1.35724617       0.00000000
Si      -1.35762489       1.35747828      -1.35793648       0.00000000
Si       1.35850455       1.35944937       1.35728069       0.00000000
Si      -0.00057015       2.71329498      -2.71438880       0.00000000
Si      -2.71401174      -0.00081450      -2.71442331       0.00000000
Si       2.71406599       0.00045612      -2.71487201       0.00000000
Si       2.71458798       2.71518462      -0.00037967       0.00000000
Si      -2.71510317       2.71480995      -0.00020709       0.00000000
Si      -0.00016290      -2.71520091      -2.71473395       0.00000000
