10
Lattice="16.28999089631971 0.0 0.0 0.0 16.28999089631971 0.0 0.0 0.0 34.51530692428229" Properties=species:S:1:pos:R:3:initial_magmoms:R:1 pbc="T T T"
Si       1.35834165      -1.35584928      -1.35962773       0.00000000
Si      -1.35821133       1.35715248      -1.35966225       0.00000000
Si       1.36329381       1.34658027       1.37616057       0.00000000
Si      -1.35570267      -1.35135324       1.37902534       0.00000000
Si      -0.08749359       2.60983719       2.78203884       0.00000000
Si       2.71300176      -2.71425609       0.00286477       0.00000000
Si      -2.71432125       2.71616202      -0.00106998       0.00000000
Si       2.71035483       2.72062548       0.00110449       0.00000000
Si       2.71442508      -0.00011403      -2.71728809       0.00000000
Si      -0.00050499       2.71482624      -2.71725357       0.00000000
