10
Lattice="16.28999089631971 0.0 0.0 0.0 16.28999089631971 0.0 0.0 0.0 34.51530692428229" Properties=species:S:1:pos:R:3:initial_magmoms:R:1 pbc="T T T"
Si       1.35608343       1.35573525      -1.35766036       0.00000000
Si      -1.35834165       1.35584928       1.35962773       0.00000000
Si      -1.35850455      -1.35944937      -1.35728069       0.00000000
Si       1.35466011      -1.35840681       1.36249250       0.00000000
Si       2.71415739       2.71386513       0.00110449       0.00000000
Si      -0.00143352       2.71298547      -2.71532071       0.00000000
Si       2.71400915      -0.00236205      -2.71490653       0.00000000
Si      -2.71655298       2.71300176      -0.00003452       0.00000000
Si      -2.71612944      -0.00197109      -2.71521717       0.00000000
Si      -0.00133578      -2.71661814      -2.71494104       0.00000000
