10
Lattice="16.28999089631971 0.0 0.0 0.0 16.28999089631971 0.0 0.0 0.0 34.51530692428229" Properties=species:S:1:pos:R:3:initial_magmoms:R:1 pbc="T T T"
Si       0.19652256       1.82570175      -1.37098327       0.00000000
Si       2.27486659      -0.40845546      -0.05163493       0.00000000
Si      -1.38233682      -1.65783330      -0.90951336       0.00000000
Si      -0.03994308       0.72630594       2.26703566       0.00000000
Si       2.73157140       1.77354117       1.03908390       0.00000000
Si      -1.75692537       2.86234848      -0.66100301       0.00000000
Si       2.57682780      -1.84588506       1.68521080       0.00000000
Si      -1.24405101      -3.29787792       0.81155887       0.00000000
Si      -3.48832431       1.28218590      -0.28644269       0.00000000
Si       2.37320769       2.67473655      -1.08405737       0.00000000
