10
Lattice="16.28999089631971 0.0 0.0 0.0 16.28999089631971 0.0 0.0 0.0 34.51530692428229" Properties=species:S:1:pos:R:3:initial_magmoms:R:1 pbc="T T T"
Si       0.99986391      -2.09834748      -0.01701606       0.00000000
Si       1.60732357       1.21568623      -1.19205582       0.00000000
Si      -2.17101717      -0.36140994      -1.01336998       0.00000000
Si       0.24185763       0.43057728       2.37762276       0.00000000
Si      -0.49329378      -3.19973067       1.38675678       0.00000000
Si      -0.88487280      -1.48563171       3.07697230       0.00000000
Si       3.01039919      -1.65431466       1.13883319       0.00000000
Si       0.73612881       3.36356639      -1.28334886       0.00000000
Si      -3.58886619       1.19577008      -0.13502396       0.00000000
Si       2.55929814       0.00400734       2.78904545       0.00000000
