10
Lattice="16.28999089631971 0.0 0.0 0.0 16.28999089631971 0.0 0.0 0.0 34.51530692428229" Properties=species:S:1:pos:R:3:initial_magmoms:R:1 pbc="T T T"
Si       1.12673043       1.91620899      -0.69934954       0.00000000
Si       0.40309605      -0.32718465       2.30186162       0.00000000
Si      -2.32730343       0.42639075      -0.14548210       0.00000000
Si       0.39157902      -1.71409896      -1.69021552       0.00000000
Si      -0.11114667      -2.62396062       2.27286875       0.00000000
Si       0.88487280       1.48563171      -3.07697230       0.00000000
Si      -2.95300233      -1.80392202      -0.73300198       0.00000000
Si       1.88473671      -0.61271577      -3.09398836       0.00000000
Si       3.44417094       1.48963905      -0.28792685       0.00000000
Si       0.36287604       3.72213209       0.69972921       0.00000000
