10
Lattice="16.28999089631971 0.0 0.0 0.0 16.28999089631971 0.0 0.0 0.0 34.51530692428229" Properties=species:S:1:pos:R:3:initial_magmoms:R:1 pbc="T T T"
Si      -1.65011184      -1.35961227      -0.93750529       0.00000000
Si      -1.17667557       2.04735978      -0.06326659       0.00000000
Si       0.40158108      -1.12467789       2.04444632       0.00000000
Si       1.93873806      -0.25340724      -1.38824094       0.00000000
Si      -3.51879476      -0.61421445       0.37966859       0.00000000
Si       1.87727589       2.37882870       2.03088179       0.00000000
Si      -0.83499282      -3.55048695      -0.57385181       0.00000000
Si       1.94406489       0.25966260       3.15870459       0.00000000
Si      -1.22737005      -0.98837946      -3.37842916       0.00000000
Si      -0.22224447       3.35033172       1.63971960       0.00000000
