10
Lattice="16.28999089631971 0.0 0.0 0.0 16.28999089631971 0.0 0.0 0.0 34.51530692428229" Properties=species:S:1:pos:R:3:initial_magmoms:R:1 pbc="T T T"
Si       1.28904399      -1.46062656       1.31379138       0.00000000
Si      -1.35115660      -1.36011726      -1.37467641       0.00000000
Si       1.36765953       1.34941473      -1.37370998       0.00000000
Si      -1.40757722       1.41263622       1.47570277       0.00000000
Si       2.17157103       0.27212445       2.52289777       0.00000000
Si      -2.70245303       2.70143586      -0.02264205       0.00000000
Si       2.71606428       2.70519885      -0.00106998       0.00000000
Si      -2.69821763      -2.73416247       0.00037967       0.00000000
Si       0.00997437       2.70681156      -2.73540863       0.00000000
Si      -2.70551555      -0.00878031      -2.73692731       0.00000000
