10
Lattice="16.28999089631971 0.0 0.0 0.0 16.28999089631971 0.0 0.0 0.0 34.51530692428229" Properties=species:S:1:pos:R:3:initial_magmoms:R:1 pbc="T T T"
Si      -0.88252704      -1.73275101      -1.20910639       0.00000000
Si       0.31855095      -1.01641455       2.07502690       0.00000000
Si       1.82664657       1.04083326      -1.09341102       0.00000000
Si      -2.17157103      -0.27212445      -2.52289777       0.00000000
Si       0.54449325       2.43307440      -2.52396774       0.00000000
Si      -0.50604885       0.77074506       3.53481810       0.00000000
Si      -2.33822099      -2.81072547       0.50865236       0.00000000
Si       2.63756277      -1.47499434       2.14250436       0.00000000
Si      -3.57914825       1.14051177      -1.04719500       0.00000000
Si      -0.97445151       3.66164991      -1.04657372       0.00000000
