10
Lattice="16.28999089631971 0.0 0.0 0.0 16.28999089631971 0.0 0.0 0.0 34.51530692428229" Properties=species:S:1:pos:R:3:initial_magmoms:R:1 pbc="T T T"
Si      -0.48652528       1.75106097       1.54994524       0.00000000
Si       2.10589464      -0.98604999       0.82260377       0.00000000
Si      -1.42692485      -1.89174141       0.93457149       0.00000000
Si      -0.15242064       1.09470429      -2.31128430       0.00000000
Si      -2.81167259       2.22154942       1.06897417       0.00000000
Si      -1.74058880      -3.23406999      -0.96056153       0.00000000
Si       0.88662072       3.64632821       0.82243119       0.00000000
Si      -0.42239970      -2.30549112       3.08111414       0.00000000
Si      -0.96720476      -0.61628328      -3.75940933       0.00000000
Si       3.59033718       0.82433916       1.45050658       0.00000000
