10
Lattice="10.86 0.0 0.0 0.0 10.86 0.0 0.0 0.0 10.86" Properties=species:S:1:pos:R:3:initial_magmoms:R:1 pbc="T T T"
Si       1.40680440      -1.18433730       1.27117386       0.00000000
Si      -1.30819560      -1.18433730      -1.44382614       0.00000000
Si      -1.30819560       1.53066270       1.27117386       0.00000000
Si       0.04930440      -2.54183730       2.62867386       0.00000000
Si      -2.66569560      -2.54183730      -0.08632614       0.00000000
Si      -2.66569560       0.17316270       2.62867386       0.00000000
Si       2.76430440      -2.54183730      -0.08632614       0.00000000
Si       0.04930440      -2.54183730      -2.80132614       0.00000000
Si       2.76430440       0.17316270       2.62867386       0.00000000
Si       2.65613880       0.21210666      -2.75255388       0.00000000
