10
Lattice="10.86 0.0 0.0 0.0 10.86 0.0 0.0 0.0 10.86" Properties=species:S:1:pos:R:3:initial_magmoms:R:1 pbc="T T T"
Si       1.25646942      -1.31640576      -1.35885750       0.00000000
Si       1.25646942       1.39859424       1.35614250       0.00000000
Si      -1.45853058      -1.31640576       1.35614250       0.00000000
Si       2.61396942      -2.67390576      -0.00135750       0.00000000
Si       2.71902906      -0.20373360      -2.59259694       0.00000000
Si       2.61396942       0.04109424       2.71364250       0.00000000
Si       2.39106792       2.91504120      -0.08728182       0.00000000
Si      -0.10103058      -2.67390576       2.71364250       0.00000000
Si      -0.10103058      -2.67390576      -2.71635750       0.00000000
Si       0.16367106       2.70304314      -2.70339066       0.00000000
