10
Lattice="10.86 0.0 0.0 0.0 10.86 0.0 0.0 0.0 10.86" Properties=species:S:1:pos:R:3:initial_magmoms:R:1 pbc="T T T"
Si       1.35750000       1.35750000       1.35750000       0.00000000
Si      -1.35750000      -1.35750000       1.35750000       0.00000000
Si      -1.35750000       1.35750000      -1.35750000       0.00000000
Si       1.35750000      -1.35750000      -1.35750000       0.00000000
Si       2.49209850       0.15894696      -2.80092432       0.00000000
Si      -2.65726824       0.11260734      -2.65317402       0.00000000
Si       0.02880072      -2.74491930       2.57388516       0.00000000
Si       2.80526832       0.19040838       2.54484552       0.00000000
Si      -2.42741634      -0.04206078       2.92988682       0.00000000
Si       2.71500000       2.71500000       0.00000000       0.00000000
