10
Lattice="10.86 0.0 0.0 0.0 10.86 0.0 0.0 0.0 10.86" Properties=species:S:1:pos:R:3:initial_magmoms:R:1 pbc="T T T"
Si       1.29976824       1.24489266       1.29567402       0.00000000
Si      -1.41523176       1.24489266      -1.41932598       0.00000000
Si      -1.41523176      -1.47010734       1.29567402       0.00000000
Si       2.55631368       2.60308770      -0.06827682       0.00000000
Si      -0.05773176       2.60239266       2.65317402       0.00000000
Si       2.65726824      -0.11260734       2.65317402       0.00000000
Si      -2.77273176       2.60239266      -0.06182598       0.00000000
Si      -0.11114124       2.56915020      -2.84071536       0.00000000
Si      -2.77273176      -0.11260734       2.65317402       0.00000000
Si      -0.05773176      -2.82760734       2.65317402       0.00000000
