10
Lattice="16.28999089631971 0.0 0.0 0.0 16.28999089631971 0.0 0.0 0.0 34.383488856416385" Properties=species:S:1:pos:R:3:initial_magmoms:R:1 pbc="T T T"
Si      -0.67483037       0.21471849      -2.31328804       0.00000000
Si      -0.52607009       1.28011707       2.01535494       0.00000000
Si       1.63794956      -1.78887006       0.40696320       0.00000000
Si       1.53928103       1.94823513      -0.32286114       0.00000000
Si      -2.43457391      -1.08540270       0.39486021       0.00000000
Si      -1.57597688       2.42761776      -1.81885319       0.00000000
Si      -0.02675991      -3.60012258      -0.30511925       0.00000000
Si      -0.06772779       3.67176504      -0.20709187       0.00000000
Si       1.23085595       0.20222406      -3.69591767       0.00000000
Si      -1.90894448      -3.26415762       1.01606705       0.00000000
