10
Lattice="16.28999089631971 0.0 0.0 0.0 16.28999089631971 0.0 0.0 0.0 34.383488856416385" Properties=species:S:1:pos:R:3:initial_magmoms:R:1 pbc="T T T"
Si       1.35467640      -1.29654716      -1.54155020       0.00000000
Si       1.30007232       1.57824036       1.40054343       0.00000000
Si      -1.36298430       1.39256694      -1.54048431       0.00000000
Si      -1.08520722      -1.78621316       1.53910897       0.00000000
Si       0.96130548      -3.34603835       1.19633978       0.00000000
Si       2.88137520      -2.45585759      -0.10762038       0.00000000
Si      -2.75814135      -2.64067514      -0.08100755       0.00000000
Si      -2.62728378       2.81942433      -0.13354555       0.00000000
Si       2.76845292       2.71901277      -0.11893255       0.00000000
Si      -0.01340667      -2.67065592      -2.92297640       0.00000000
