10
Lattice="16.28999089631971 0.0 0.0 0.0 16.28999089631971 0.0 0.0 0.0 34.383488856416385" Properties=species:S:1:pos:R:3:initial_magmoms:R:1 pbc="T T T"
Si      -1.31626458       1.38945555      -1.40865794       0.00000000
Si       1.22723973       1.32240591       1.56537797       0.00000000
Si      -1.77440454      -1.61199324       0.64524091       0.00000000
Si       1.72270008      -0.53706501      -1.83838303       0.00000000
Si       1.30432401      -3.29779484      -0.15383182       0.00000000
Si      -0.09575262       1.17143019       3.47149651       0.00000000
Si      -2.88534996      -0.21693393      -2.32521912       0.00000000
Si      -2.55086739       2.83286358       0.49811388       0.00000000
Si       0.03473028       2.31622623      -3.09547846       0.00000000
Si       0.12261483      -1.37225331       3.65809581       0.00000000
