10
Lattice="16.28999089631971 0.0 0.0 0.0 16.28999089631971 0.0 0.0 0.0 34.383488856416385" Properties=species:S:1:pos:R:3:initial_magmoms:R:1 pbc="T T T"
Si       1.34962650       1.34894232       1.38516369       0.00000000
Si      -1.36878354      -1.36461330       1.38437287       0.00000000
Si      -1.37468052       1.37046141      -1.44510790       0.00000000
Si       1.45437120      -1.31018841      -1.45042015       0.00000000
Si       2.70288567       2.69770545      -0.01677571       0.00000000
Si      -2.73452085       2.69364924       0.02192980       0.00000000
Si       2.70531288      -2.73424392       0.01192764       0.00000000
Si      -2.72258028      -2.71956663       0.01102679       0.00000000
Si       2.70448209      -0.00703728       2.74602856       0.00000000
Si      -0.01023012       2.70529659       2.74750705       0.00000000
