10
Lattice="16.28999089631971 0.0 0.0 0.0 16.28999089631971 0.0 0.0 0.0 34.383488856416385" Properties=species:S:1:pos:R:3:initial_magmoms:R:1 pbc="T T T"
Si      -0.56003391      -2.29151430       0.07980412       0.00000000
Si      -1.43863506       1.70728974      -0.78084947       0.00000000
Si       0.55399032       0.36452133       2.33058294       0.00000000
Si       0.60649299       1.09691973      -2.10709014       0.00000000
Si       1.48874310      -3.25327590       0.75152034       0.00000000
Si      -1.88302626      -2.44249002       1.98592266       0.00000000
Si      -1.36186029      -0.52132887       3.39368663       0.00000000
Si       1.91358630       2.92040604      -1.24423601       0.00000000
Si      -1.01825532       3.88811349       0.00165041       0.00000000
Si       2.70949941       2.80044648       0.99416475       0.00000000
