10
Lattice="16.28999089631971 0.0 0.0 0.0 16.28999089631971 0.0 0.0 0.0 34.383488856416385" Properties=species:S:1:pos:R:3:initial_magmoms:R:1 pbc="T T T"
Si       1.08483255      -1.68486493       1.22817891       0.00000000
Si       0.70711632       0.55684107      -2.17382853       0.00000000
Si       0.33187617       2.27426319       0.73632283       0.00000000
Si      -2.00199932      -0.71172639      -1.25472298       0.00000000
Si      -1.85566625       1.60518402       0.49171855       0.00000000
Si      -1.47259743       0.94025880      -2.86589978       0.00000000
Si       1.95204699      -1.37174832      -2.51769800       0.00000000
Si      -0.25755467      -1.67192415       3.15056084       0.00000000
Si       3.15092583      -0.64790217       1.89291527       0.00000000
Si       0.90419274       2.22066909       2.99005863       0.00000000
