10
Lattice="16.28999089631971 0.0 0.0 0.0 16.28999089631971 0.0 0.0 0.0 34.383488856416385" Properties=species:S:1:pos:R:3:initial_magmoms:R:1 pbc="T T T"
Si       1.32299235       0.15097572      -1.90611854       0.00000000
Si      -2.10887082       0.84716145      -0.70273014       0.00000000
Si       0.52116597       1.92116115       1.40776397       0.00000000
Si       0.21836745      -2.54368350       0.18659930       0.00000000
Si      -3.28899987      -1.08374112      -0.18873108       0.00000000
Si       0.09575262      -1.17143019      -3.47149651       0.00000000
Si       1.88302626       2.44249002      -1.98592266       0.00000000
Si      -2.04406920      -3.01233051      -0.53260054       0.00000000
Si       3.37176936      -0.81078588      -1.23440232       0.00000000
Si       2.16132462      -0.75149028       2.92875283       0.00000000
