10
Lattice="16.28999089631971 0.0 0.0 0.0 16.28999089631971 0.0 0.0 0.0 34.383488856416385" Properties=species:S:1:pos:R:3:initial_magmoms:R:1 pbc="T T T"
Si      -2.24308413       0.53713017       0.33561742       0.00000000
Si       0.41891364      -0.01518228       2.29826245       0.00000000
Si       1.77601725       1.09594233      -1.06908642       0.00000000
Si       0.00364896      -2.33144109      -0.76152594       0.00000000
Si      -2.81540070       0.59072427      -1.91811838       0.00000000
Si      -2.66331726      -1.47027024       1.67392671       0.00000000
Si      -0.57728502      -2.06384526       2.75821063       0.00000000
Si       3.01016394      -0.79444701      -1.71078583       0.00000000
Si       0.61786341      -3.41355973       1.21463181       0.00000000
Si       2.67408495       0.10324602       2.81439329       0.00000000
