10
Lattice="16.28999089631971 0.0 0.0 0.0 16.28999089631971 0.0 0.0 0.0 34.383488856416385" Properties=species:S:1:pos:R:3:initial_magmoms:R:1 pbc="T T T"
Si      -1.49170788       1.84586877      -0.04108829       0.00000000
Si       2.19972015       0.78086115       0.52974671       0.00000000
Si      -0.09637164      -0.40299831      -2.37841040       0.00000000
Si       1.98865062      -2.81268027      -0.66215760       0.00000000
Si      -3.42570392       0.62038836       0.55350571       0.00000000
Si      -2.89760004      -1.39839876       1.75101453       0.00000000
Si       3.41757684      -1.25823960       0.44726067       0.00000000
Si       1.58263866      -2.03041818      -2.82484587       0.00000000
Si       2.21869800       1.39426110       2.83763654       0.00000000
Si       0.00913869       1.09981935       3.71988297       0.00000000
