10
Lattice="16.28999089631971 0.0 0.0 0.0 16.28999089631971 0.0 0.0 0.0 34.383488856416385" Properties=species:S:1:pos:R:3:initial_magmoms:R:1 pbc="T T T"
Si      -0.97813305       2.11616874      -0.14066293       0.00000000
Si      -1.48919922      -1.85365539      -0.12470898       0.00000000
Si       2.20955931       0.29444175      -0.88224643       0.00000000
Si      -2.55169818      -0.64646865       1.56121757       0.00000000
Si       0.97474473       3.04443810       0.89844107       0.00000000
Si      -2.79435402       2.15067096       1.42485257       0.00000000
Si       3.33295029      -1.57302756       0.95187304       0.00000000
Si      -1.37230218       2.63349027      -2.40935556       0.00000000
Si       0.30985209       1.37021706       3.55924322       0.00000000
Si      -0.00913869      -1.09981935      -3.71988297       0.00000000
