10
Lattice="16.28999089631971 0.0 0.0 0.0 16.28999089631971 0.0 0.0 0.0 34.383488856416385" Properties=species:S:1:pos:R:3:initial_magmoms:R:1 pbc="T T T"
Si      -1.35698958       1.35729981       1.35691076       0.00000000
Si       1.35725022      -1.35788553       1.35722021       0.00000000
Si       1.35944937       1.35651432      -1.35704830       0.00000000
Si      -1.35703845      -1.35809730      -1.35969583       0.00000000
Si      -0.00026064      -2.71300176       2.71217112       0.00000000
Si       2.71497285       0.00058644      -2.71182728       0.00000000
Si      -2.71281931       0.00097740       2.71430289       0.00000000
Si       2.71507059      -0.00091224       2.71399344       0.00000000
Si       2.71440270      -2.71498914      -0.00017192       0.00000000
Si      -2.71505267       2.71458093      -0.00068767       0.00000000
