10
Lattice="16.28999089631971 0.0 0.0 0.0 16.28999089631971 0.0 0.0 0.0 34.383488856416385" Properties=species:S:1:pos:R:3:initial_magmoms:R:1 pbc="T T T"
Si      -0.87837309      -2.16380070      -0.49137471       0.00000000
Si       2.20136544       0.21976839       1.01032500       0.00000000
Si      -1.77495840       0.13033629       1.73461360       0.00000000
Si      -0.09218511       0.92804130      -2.47850080       0.00000000
Si       0.32017995      -2.44944585       1.48055386       0.00000000
Si       0.68334921       2.73447198      -1.13981329       0.00000000
Si      -2.24049402       2.48603319       1.51579695       0.00000000
Si       1.09501380      -3.45255147      -1.12410003       0.00000000
Si       3.84417936      -0.58371957      -0.78751987       0.00000000
Si       2.54598039      -2.01388383      -2.36053098       0.00000000
