10
Lattice="16.28999089631971 0.0 0.0 0.0 16.28999089631971 0.0 0.0 0.0 34.383488856416385" Properties=species:S:1:pos:R:3:initial_magmoms:R:1 pbc="T T T"
Si      -1.35664749      -1.35615716       1.35842364       0.00000000
Si       1.35659862      -1.35785295      -1.35787350       0.00000000
Si      -1.35726651       1.35744570      -1.35780473       0.00000000
Si       1.35951453       1.35741312       1.35694515       0.00000000
Si       2.71256193      -0.00164529       2.71368399       0.00000000
Si       0.00215028       2.71554300      -2.71395906       0.00000000
Si      -2.71467963       0.00034209      -2.71495618       0.00000000
Si       2.71454931      -2.71509342       0.00003438       0.00000000
Si       2.71485882       2.71542897       0.00006877       0.00000000
Si      -2.71538010       2.71498914       0.00003438       0.00000000
