10
Lattice="16.28999089631971 0.0 0.0 0.0 16.28999089631971 0.0 0.0 0.0 34.383488856416385" Properties=species:S:1:pos:R:3:initial_magmoms:R:1 pbc="T T T"
Si      -1.26939825       1.94331555       0.41772524       0.00000000
Si      -0.05012433      -1.06040732       2.13518147       0.00000000
Si       2.21405535       0.88369992      -0.29112516       0.00000000
Si      -0.85071267      -1.06669689      -2.39852476       0.00000000
Si       1.25569836       1.98522972      -2.39058217       0.00000000
Si      -0.22693599       3.44935863      -1.17454064       0.00000000
Si      -0.33606270       2.62470996       2.58801227       0.00000000
Si      -0.76419648      -3.24220589       1.75448727       0.00000000
Si      -3.64394268       1.07110008      -0.07739728       0.00000000
Si       3.69769968      -0.91495880      -0.67831785       0.00000000
