10
Lattice="16.28999089631971 0.0 0.0 0.0 16.28999089631971 0.0 0.0 0.0 34.383488856416385" Properties=species:S:1:pos:R:3:initial_magmoms:R:1 pbc="T T T"
Si       0.20808846       0.29048328       2.30685832       0.00000000
Si       1.75456332       0.65590056      -1.41006767       0.00000000
Si       0.48034323      -2.29711806      -0.23277635       0.00000000
Si      -2.04877701       0.96176160      -0.67171621       0.00000000
Si       0.92996352       2.46677841       2.44222619       0.00000000
Si       1.73827332      -1.33178895       2.87136676       0.00000000
Si      -1.66990419      -3.20928313      -0.05834881       0.00000000
Si      -1.48874310       3.25327590      -0.75152034       0.00000000
Si       0.82122777      -0.02549385      -3.58035470       0.00000000
Si      -3.37176936       0.81078588       1.23440232       0.00000000
