10
Lattice="16.28999089631971 0.0 0.0 0.0 16.28999089631971 0.0 0.0 0.0 34.383488856416385" Properties=species:S:1:pos:R:3:initial_magmoms:R:1 pbc="T T T"
Si      -1.34850591       1.34643366      -1.35333488       0.00000000
Si       1.35700963       1.35527913       1.35412570       0.00000000
Si      -1.35697671      -1.35824391       1.35385063       0.00000000
Si       1.35662356      -1.36060596      -1.36155254       0.00000000
Si      -0.00731644       2.72052774      -2.69581832       0.00000000
Si       2.71430872      -0.00097740       2.71069263       0.00000000
Si      -0.00078654       2.71376739       2.71138030       0.00000000
Si      -2.71556271      -0.00065160       2.71110523       0.00000000
Si       2.71347793       2.71319724      -0.00233808       0.00000000
Si      -0.00035595      -2.71603170       2.71093331       0.00000000
