10
Lattice="16.28999089631971 0.0 0.0 0.0 16.28999089631971 0.0 0.0 0.0 34.383488856416385" Properties=species:S:1:pos:R:3:initial_magmoms:R:1 pbc="T T T"
Si      -1.35651717       1.35584928      -1.35890501       0.00000000
Si       1.35977517      -1.35596331      -1.35739213       0.00000000
Si       1.35166275       1.35817875       1.37454950       0.00000000
Si      -1.34153037      -1.35558864       1.39184441       0.00000000
Si      -2.51586018       0.23037318       2.78465155       0.00000000
Si      -2.71503801       2.71218629       0.00402287       0.00000000
Si       2.71805166       2.70998782       0.00271630       0.00000000
Si       0.00043983       2.71409995      -2.71557508       0.00000000
Si      -2.71433754      -0.00112401      -2.71567823       0.00000000
Si       2.71393029      -2.71673217       0.00209739       0.00000000
