10
Lattice="16.28999089631971 0.0 0.0 0.0 16.28999089631971 0.0 0.0 0.0 34.383488856416385" Properties=species:S:1:pos:R:3:initial_magmoms:R:1 pbc="T T T"
Si       2.22987294      -0.59689818      -0.53136273       0.00000000
Si      -0.74179773       0.75178350       2.14642487       0.00000000
Si      -1.52291952       1.41055110      -1.23130781       0.00000000
Si      -0.65187693      -2.27939454      -0.47335776       0.00000000
Si      -2.68846902      -0.72537741       2.21374778       0.00000000
Si      -1.72506213      -2.73916350       1.56080497       0.00000000
Si      -2.63163321      -0.17598087      -2.58828734       0.00000000
Si      -1.44779004      -2.15943498      -2.71175851       0.00000000
Si      -1.59889608       3.00838833       1.93599781       0.00000000
Si       2.28376026      -2.18095407      -2.32473775       0.00000000
