10
Lattice="16.28999089631971 0.0 0.0 0.0 16.28999089631971 0.0 0.0 0.0 34.383488856416385" Properties=species:S:1:pos:R:3:initial_magmoms:R:1 pbc="T T T"
Si      -0.10195911       1.28597888      -1.95858777       0.00000000
Si      -1.25473725      -2.04915168       0.03280187       0.00000000
Si       2.34157347      -0.66824838      -0.00691109       0.00000000
Si      -0.79475652       1.86331440       1.35821734       0.00000000
Si       1.75368366       2.67189299      -1.41140862       0.00000000
Si       3.42010179       1.39283151      -0.40324978       0.00000000
Si       0.84727548      -0.05843223      -3.66112156       0.00000000
Si      -1.09224450      -2.88422595       2.23843514       0.00000000
Si      -3.50953389      -1.54354266      -0.44148424       0.00000000
Si       2.94588360      -1.26355014       2.19820644       0.00000000
