10
Lattice="16.28999089631971 0.0 0.0 0.0 16.28999089631971 0.0 0.0 0.0 34.383488856416385" Properties=species:S:1:pos:R:3:initial_magmoms:R:1 pbc="T T T"
Si      -1.35700963      -1.35527913      -1.35412570       0.00000000
Si       1.35729909      -1.35625653       1.35656693       0.00000000
Si       1.35646830       1.35791811      -1.35646378       0.00000000
Si      -1.35779618       1.35848826       1.35725460       0.00000000
Si      -2.70551555      -0.00884547      -2.70746058       0.00000000
Si      -2.71398635      -2.71352304      -0.00027507       0.00000000
Si      -2.71390490       0.00259011       2.71375276       0.00000000
Si       0.00090409      -2.71438641       2.71382153       0.00000000
Si       2.71505430      -2.71415835      -0.00103151       0.00000000
Si       2.71614573       0.00140094       2.71406221       0.00000000
