10
Lattice="16.28999089631971 0.0 0.0 0.0 16.28999089631971 0.0 0.0 0.0 34.383488856416385" Properties=species:S:1:pos:R:3:initial_magmoms:R:1 pbc="T T T"
Si      -1.52236566       1.21771008      -1.23986930       0.00000000
Si       1.20474324      -1.55298176      -1.23292383       0.00000000
Si       1.74931794       0.95132623       1.20338840       0.00000000
Si      -1.85259654      -0.78982784       1.23106712       0.00000000
Si      -0.33371694      -0.91345265       3.03090624       0.00000000
Si      -0.16333983       2.54456316      -2.59537034       0.00000000
Si       3.23528589      -0.94067324       1.38015401       0.00000000
Si       2.55349008      -0.16946324      -2.59052227       0.00000000
Si       1.05252948       1.08331921       3.45347955       0.00000000
Si      -2.83180473       2.62945035       0.18938436       0.00000000
