10
Lattice="16.28999089631971 0.0 0.0 0.0 16.28999089631971 0.0 0.0 0.0 34.383488856416385" Properties=species:S:1:pos:R:3:initial_magmoms:R:1 pbc="T T T"
Si       0.19482840      -2.35115688      -0.09658327       0.00000000
Si       1.35977517       0.41979330      -1.90075471       0.00000000
Si      -2.08277424       0.82645686      -0.85597743       0.00000000
Si       0.48145095       1.35796698       1.95315518       0.00000000
Si       0.90999198       2.72761389      -2.17699181       0.00000000
Si      -1.37554389       2.98291077      -1.51469668       0.00000000
Si      -1.79683587      -2.85866042      -1.30880823       0.00000000
Si       3.61217036       0.28101879       0.90769023       0.00000000
Si      -0.12385287       0.00171045       3.81299351       0.00000000
Si       0.46734381      -0.91455318      -3.73511487       0.00000000
