10
Lattice="16.28999089631971 0.0 0.0 0.0 16.28999089631971 0.0 0.0 0.0 34.383488856416385" Properties=species:S:1:pos:R:3:initial_magmoms:R:1 pbc="T T T"
Si       1.46814832       0.36424114      -1.77246984       0.00000000
Si      -2.07063819       0.95003280       0.55144270       0.00000000
Si       1.00752021      -0.17196213       2.16279142       0.00000000
Si      -0.83285883      -2.17743773      -0.60827864       0.00000000
Si       2.57505545      -1.70670560      -1.51517805       0.00000000
Si      -2.21589612      -0.05225506       2.64587971       0.00000000
Si      -0.63244296      -1.72662827       3.01962845       0.00000000
Si      -0.31447845       0.58797778      -3.47428157       0.00000000
Si      -0.45895446      -3.35144174       1.37754087       0.00000000
Si       0.81730188       1.93022328       3.16689301       0.00000000
