10
Lattice="16.28999089631971 0.0 0.0 0.0 16.28999089631971 0.0 0.0 0.0 34.383488856416385" Properties=species:S:1:pos:R:3:initial_magmoms:R:1 pbc="T T T"
Si       1.48633055       1.80537183      -0.53263492       0.00000000
Si       0.74859392      -1.97669376      -1.30285989       0.00000000
Si      -1.98354438       0.85061493      -1.25627023       0.00000000
Si       0.13078101       0.30015954       2.54156015       0.00000000
Si       2.03875703      -2.70484047       0.52029124       0.00000000
Si      -0.67070263       2.00831265      -2.79809550       0.00000000
Si       2.01525056      -0.77512707      -2.84722954       0.00000000
Si      -0.56699300      -1.86929379       3.11060721       0.00000000
Si       3.33042371       0.82342692      -1.64439127       0.00000000
Si      -3.29166396       2.24955126       0.16923563       0.00000000
