10
Lattice="16.28999089631971 0.0 0.0 0.0 16.28999089631971 0.0 0.0 0.0 34.383488856416385" Properties=species:S:1:pos:R:3:initial_magmoms:R:1 pbc="T T T"
Si       0.47589606      -1.04984163       2.01789932       0.00000000
Si       0.85896488      -1.71476685      -1.33971901       0.00000000
Si      -2.27175453      -0.63781866      -0.29425406       0.00000000
Si       1.17011137       2.07387990       0.35318739       0.00000000
Si       0.32956299      -3.36675204       0.27145780       0.00000000
Si       2.66343848      -0.38076246       2.26250360       0.00000000
Si       0.19248264       3.32558721      -1.38273278       0.00000000
Si       3.37325894       1.20291876       0.61776849       0.00000000
Si       3.03867863      -2.09818458      -0.64764776       0.00000000
Si      -0.69678846      -0.01901043       3.72194598       0.00000000
