10
Lattice="16.28999089631971 0.0 0.0 0.0 16.28999089631971 0.0 0.0 0.0 34.383488856416385" Properties=species:S:1:pos:R:3:initial_magmoms:R:1 pbc="T T T"
Si      -1.29733560       1.93147272       0.12353994       0.00000000
Si       2.27175453       0.63781866       0.29425406       0.00000000
Si      -0.60530382      -1.35625653       1.85983834       0.00000000
Si      -0.48145095      -1.35796698      -1.95315518       0.00000000
Si       3.13071941      -1.07694819      -1.04546495       0.00000000
Si       2.74765059      -0.41202297       2.31215338       0.00000000
Si       0.60484770      -3.27808557       1.59508532       0.00000000
Si      -3.38882499       1.27936773       1.04316125       0.00000000
Si       2.60131752      -2.72893338       0.56571186       0.00000000
Si      -2.56422519      -0.53151012      -2.80913261       0.00000000
