10
Lattice="16.28999089631971 0.0 0.0 0.0 16.28999089631971 0.0 0.0 0.0 34.383488856416385" Properties=species:S:1:pos:R:3:initial_magmoms:R:1 pbc="T T T"
Si       1.26665664       1.20156669      -1.54436965       0.00000000
Si       1.29016311      -0.72814671       1.82315113       0.00000000
Si      -0.74859392       1.97669376       1.30285989       0.00000000
Si      -1.32058306      -1.36243044      -1.62898746       0.00000000
Si       2.58182979       2.80012068      -0.34153139       0.00000000
Si      -0.18949994       2.50450605      -2.95151472       0.00000000
Si       2.53095612      -0.22529070      -2.95130842       0.00000000
Si       0.73773663       3.78206559       0.77022496       0.00000000
Si      -2.73213829       2.82730869       0.04658965       0.00000000
Si      -2.35334692      -3.16632965      -0.54102450       0.00000000
