10
Lattice="16.28999089631971 0.0 0.0 0.0 16.28999089631971 0.0 0.0 0.0 34.383488856416385" Properties=species:S:1:pos:R:3:initial_magmoms:R:1 pbc="T T T"
Si       1.17268452      -1.03083120      -1.70404666       0.00000000
Si      -1.91536191      -1.29134088       0.07997604       0.00000000
Si      -0.64624059       2.16469665      -0.63709202       0.00000000
Si       0.78615540       0.68869233       2.15457377       0.00000000
Si      -0.62828901       2.57264712       1.71381158       0.00000000
Si      -1.02084543      -2.69193879       1.76748423       0.00000000
Si      -0.06108750      -1.23007419       3.37831720       0.00000000
Si      -2.18026989      -1.97506476      -2.15636171       0.00000000
Si       3.36022694      -0.36175203      -1.45944238       0.00000000
Si       1.25802783       3.27344292      -1.34240092       0.00000000
