10
Lattice="16.28999089631971 0.0 0.0 0.0 16.28999089631971 0.0 0.0 0.0 34.383488856416385" Properties=species:S:1:pos:R:3:initial_magmoms:R:1 pbc="T T T"
Si      -0.98616402       0.45686934       2.11811147       0.00000000
Si      -0.57524877      -2.01134259      -1.23701547       0.00000000
Si       2.16445230      -1.08076005       0.59937331       0.00000000
Si      -1.00113453       2.11778145      -1.13668439       0.00000000
Si       0.65596572       2.31821361       2.24577400       0.00000000
Si       1.05319737      -2.69153154       2.01089338       0.00000000
Si      -0.33236487      -1.38061008       3.44398768       0.00000000
Si      -2.88300420      -1.82610900      -1.89102418       0.00000000
Si       0.91256580      -2.10118194      -3.26378574       0.00000000
Si       0.60453819       3.86024130      -0.83651637       0.00000000
