10
Lattice="16.28999089631971 0.0 0.0 0.0 16.28999089631971 0.0 0.0 0.0 34.383488856416385" Properties=species:S:1:pos:R:3:initial_magmoms:R:1 pbc="T T T"
Si       1.28762676       1.28730096      -1.43300147       0.00000000
Si      -0.82658718       1.81798029       1.27851636       0.00000000
Si       1.39097052      -1.12800105       1.67681492       0.00000000
Si      -1.50591276      -1.44594927      -1.38575853       0.00000000
Si      -0.94980474      -1.75464477       2.40100037       0.00000000
Si      -0.97725339       0.89850753       3.41930234       0.00000000
Si       2.69909010      -2.52693738       0.25130906       0.00000000
Si       2.54166354      -0.14618646      -2.77093253       0.00000000
Si      -0.18981108       2.58986565      -2.75215914       0.00000000
Si       3.09738060       2.21480469      -0.08623384       0.00000000
