10
Lattice="16.28999089631971 0.0 0.0 0.0 16.28999089631971 0.0 0.0 0.0 34.383488856416385" Properties=species:S:1:pos:R:3:initial_magmoms:R:1 pbc="T T T"
Si       1.30811958      -1.39893633      -1.42550586       0.00000000
Si      -1.39097052       1.12800105      -1.67681492       0.00000000
Si      -2.34077526      -0.62664372       0.72418545       0.00000000
Si       1.21331178       1.42244280       1.81259540       0.00000000
Si      -0.05087367      -1.81975590       2.18228687       0.00000000
Si      -2.36822391       2.02650858       1.74248742       0.00000000
Si       1.69593561      -0.46933119       3.12876170       0.00000000
Si      -2.21755770       2.94598134      -0.39829856       0.00000000
Si      -0.64180971       1.77534936       3.30463334       0.00000000
Si      -0.10334376       2.41530201      -3.10981639       0.00000000
