10
Lattice="16.28999089631971 0.0 0.0 0.0 16.28999089631971 0.0 0.0 0.0 34.383488856416385" Properties=species:S:1:pos:R:3:initial_magmoms:R:1 pbc="T T T"
Si      -1.72641420       0.25115922      -1.56214592       0.00000000
Si      -0.05388732       1.58405589       1.79337501       0.00000000
Si       1.85512149      -0.35290656      -1.49203795       0.00000000
Si      -1.28793627      -1.70486253       1.18186432       0.00000000
Si       2.33774532      -2.24468055      -0.17587164       0.00000000
Si       2.62663218      -1.00134630       1.91932180       0.00000000
Si       0.90691317       0.05201397       3.30016349       0.00000000
Si      -2.93563719      -0.09844047       1.85137999       0.00000000
Si      -3.73155030       0.02151909      -0.38702077       0.00000000
Si      -1.69459983      -3.33980838      -0.46005134       0.00000000
