10
Lattice="16.28999089631971 0.0 0.0 0.0 16.28999089631971 0.0 0.0 0.0 34.383488856416385" Properties=species:S:1:pos:R:3:initial_magmoms:R:1 pbc="T T T"
Si       1.54134351       1.73058444      -0.00921478       0.00000000
Si       0.96080049      -1.53204192       1.50678847       0.00000000
Si      -2.22987294       0.59689818       0.53136273       0.00000000
Si       0.05388732      -1.58405589      -1.79337501       0.00000000
Si      -2.88174987      -1.68249636       0.05800498       0.00000000
Si      -1.23404895      -3.28891842      -0.61151069       0.00000000
Si       1.16743914       2.90458845      -1.99503429       0.00000000
Si       2.68051950      -2.58540219       0.12594679       0.00000000
Si       2.17618110      -0.53100513       3.25285178       0.00000000
Si       1.36785501       3.35539791       1.63287280       0.00000000
