10
Lattice="16.28999089631971 0.0 0.0 0.0 16.28999089631971 0.0 0.0 0.0 34.383488856416385" Properties=species:S:1:pos:R:3:initial_magmoms:R:1 pbc="T T T"
Si       0.62766999       2.28265254      -0.21376227       0.00000000
Si      -2.24245859      -0.04479750      -0.80206409       0.00000000
Si       0.34624395      -0.81427194       2.27065249       0.00000000
Si       1.23460281      -1.44340803      -1.90677182       0.00000000
Si      -2.94023260      -2.21425083      -0.23301703       0.00000000
Si       2.89950597       2.48834637       0.20661050       0.00000000
Si       2.55086739      -2.83286358      -0.49811388       0.00000000
Si      -0.83388510      -2.74517451       2.78465155       0.00000000
Si      -2.37323960      -0.34495704      -3.34362424       0.00000000
Si      -0.49930479       0.55592883       4.05006780       0.00000000
