10
Lattice="16.28999089631971 0.0 0.0 0.0 16.28999089631971 0.0 0.0 0.0 34.383488856416385" Properties=species:S:1:pos:R:3:initial_magmoms:R:1 pbc="T T T"
Si      -1.35343836      -1.35705474       1.38244739       0.00000000
Si       1.36475991       1.35497029       1.37842452       0.00000000
Si       1.24263378      -1.57548735      -1.29877169       0.00000000
Si      -1.27641924       1.49572404      -1.44108847       0.00000000
Si      -0.27287379      -2.49046407      -2.82858477       0.00000000
Si      -2.69858511      -2.72264544       0.00223149       0.00000000
Si      -2.70210375       2.73359951      -0.00061203       0.00000000
Si      -2.71065600      -0.00306252       2.74038966       0.00000000
Si       2.73390141       2.71792853      -0.00541540       0.00000000
Si       0.00607617       2.71561535       2.73867049       0.00000000
