10
Lattice="16.28999089631971 0.0 0.0 0.0 16.28999089631971 0.0 0.0 0.0 34.383488856416385" Properties=species:S:1:pos:R:3:initial_magmoms:R:1 pbc="T T T"
Si       1.35726200       1.35606105      -1.35694515       0.00000000
Si      -1.36054080       1.35651717       1.35642939       0.00000000
Si      -1.35755973      -1.35913986      -1.35715145       0.00000000
Si       1.35542773      -1.36161594       1.36093363       0.00000000
Si       0.00790065       2.68713324       2.71901343       0.00000000
Si      -2.71349046       2.71453302      -0.00003438       0.00000000
Si      -0.00022806       2.71404432      -2.71430289       0.00000000
Si       2.71441314      -0.00172674      -2.71416536       0.00000000
Si      -2.71432125      -2.71591767      -0.00024068       0.00000000
Si      -2.71627605      -0.00149868      -2.71416536       0.00000000
