10
Lattice="16.28999089631971 0.0 0.0 0.0 16.28999089631971 0.0 0.0 0.0 34.383488856416385" Properties=species:S:1:pos:R:3:initial_magmoms:R:1 pbc="T T T"
Si       0.52429365      -0.31521150       2.24943787       0.00000000
Si      -1.98545778       1.48001166       0.28472983       0.00000000
Si       1.58354505       1.45279107      -1.36602239       0.00000000
Si       0.11707623      -2.20981995      -1.29271675       0.00000000
Si       1.01829395      -0.48184191      -2.59213829       0.00000000
Si       2.66016419      -1.83029553       0.92319719       0.00000000
Si      -0.59921136       3.47678352       0.70730314       0.00000000
Si       0.09757710       3.34479053      -1.54278801       0.00000000
Si       2.29032254       1.18210014       2.66640667       0.00000000
Si      -3.02950017       0.49019868       2.16196622       0.00000000
