10
Lattice="16.28999089631971 0.0 0.0 0.0 16.28999089631971 0.0 0.0 0.0 34.383488856416385" Properties=species:S:1:pos:R:3:initial_magmoms:R:1 pbc="T T T"
Si      -0.77028894       2.08268532       0.74292446       0.00000000
Si      -0.27774450       0.39102516      -2.29561492       0.00000000
Si       2.32746863      -0.27194526       0.15964263       0.00000000
Si      -0.89673192      -2.09419353       0.75248307       0.00000000
Si       2.41044663      -2.15273979      -1.24038505       0.00000000
Si       0.53058159      -3.49537788      -0.67563593       0.00000000
Si      -0.82446948       3.49872452      -1.11897689       0.00000000
Si       2.91633421      -0.69664185       2.39573969       0.00000000
Si       0.55250793       2.95408303       2.41214063       0.00000000
Si      -1.86119766       2.06539837      -2.66936365       0.00000000
