10
Lattice="16.28999089631971 0.0 0.0 0.0 16.28999089631971 0.0 0.0 0.0 34.383488856416385" Properties=species:S:1:pos:R:3:initial_magmoms:R:1 pbc="T T T"
Si       1.51550757       0.91497672       1.52981309       0.00000000
Si      -1.00387125      -1.62642618       1.39586182       0.00000000
Si       0.70209900      -0.94784994      -2.06160076       0.00000000
Si       2.61060282       1.41766983      -0.44110603       0.00000000
Si       1.22772843      -3.12660486      -1.44039392       0.00000000
Si      -2.42571132      -0.23218137       2.83081626       0.00000000
Si       0.27287379       2.49046407       2.82858477       0.00000000
Si      -2.10211047      -3.21725871      -0.15816414       0.00000000
Si       3.13667291       0.13755276      -2.45646097       0.00000000
Si       0.28435824      -2.94296769       2.86097060       0.00000000
