10
Lattice="16.28999089631971 0.0 0.0 0.0 16.28999089631971 0.0 0.0 0.0 34.383488856416385" Properties=species:S:1:pos:R:3:initial_magmoms:R:1 pbc="T T T"
Si      -2.18754242      -0.66907917      -0.24460428       0.00000000
Si       0.57231657      -0.05359410       2.25373580       0.00000000
Si       0.70982046       1.58368122      -1.64473511       0.00000000
Si      -0.33187617      -2.27426319      -0.73632283       0.00000000
Si       0.37524015      -1.71742212      -2.91015136       0.00000000
Si      -1.49332711       2.45464236      -1.90931620       0.00000000
Si       2.81540070      -0.59072427       1.91811838       0.00000000
Si      -2.66343848       0.38076246      -2.26250360       0.00000000
Si      -3.36022694       0.36175203       1.45944238       0.00000000
Si       1.55536920       0.21348045      -3.42415042       0.00000000
