10
Lattice="16.28999089631971 0.0 0.0 0.0 16.28999089631971 0.0 0.0 0.0 34.383488856416385" Properties=species:S:1:pos:R:3:initial_magmoms:R:1 pbc="T T T"
Si      -1.33917031      -1.36254447       1.35976459       0.00000000
Si       1.36029676      -1.35345465      -1.36028035       0.00000000
Si      -1.35542773       1.36161594      -1.36093363       0.00000000
Si       1.39510849       1.35555606       1.36495650       0.00000000
Si      -2.59320709       0.07094295       2.69769566       0.00000000
Si       2.71312099      -2.71212210      -0.00165041       0.00000000
Si      -2.71129330      -2.71450044      -0.00220054       0.00000000
Si       0.00146291      -2.71220355      -2.71770686       0.00000000
Si      -2.71298746       0.00247608      -2.71808508       0.00000000
Si       2.71862701       2.71538010      -0.00144411       0.00000000
