10
Lattice="16.28999089631971 0.0 0.0 0.0 16.28999089631971 0.0 0.0 0.0 34.383488856416385" Properties=species:S:1:pos:R:3:initial_magmoms:R:1 pbc="T T T"
Si      -1.27734402       1.37086866       1.38008525       0.00000000
Si       1.32351852       1.35982404      -1.36640061       0.00000000
Si      -1.39510849      -1.35555606      -1.36495650       0.00000000
Si       1.61344794      -1.31268078       1.64645428       0.00000000
Si      -2.17856174      -0.35710938       2.67950678       0.00000000
Si      -0.12683068      -1.80457362       3.24931028       0.00000000
Si       2.65696905      -2.69014689      -0.01756997       0.00000000
Si       2.66456019       2.72137482       0.01904846       0.00000000
Si       2.67900942       0.00689067      -2.72809068       0.00000000
Si      -0.03481173      -2.70901071      -2.72523685       0.00000000
