10
Lattice="16.28999089631971 0.0 0.0 0.0 16.28999089631971 0.0 0.0 0.0 34.383488856416385" Properties=species:S:1:pos:R:3:initial_magmoms:R:1 pbc="T T T"
Si      -1.06249896       1.20718674       1.68592655       0.00000000
Si       1.48919922       1.85365539       0.12470898       0.00000000
Si      -1.41753951      -0.64456272      -1.84415946       0.00000000
Si       0.41761044      -1.65547125       1.93118411       0.00000000
Si      -0.40435038      -0.04961934       3.59011961       0.00000000
Si      -2.96986427       2.19307383       0.83747911       0.00000000
Si      -1.94564339       1.37422440      -3.04166827       0.00000000
Si      -0.55039023      -2.61765639      -2.85262775       0.00000000
Si       2.11160754      -3.16996884      -0.88998272       0.00000000
Si       1.48006053       0.75383604      -3.59517399       0.00000000
