10
Lattice="16.28999089631971 0.0 0.0 0.0 16.28999089631971 0.0 0.0 0.0 34.383488856416385" Properties=species:S:1:pos:R:3:initial_magmoms:R:1 pbc="T T T"
Si       1.35582973       1.35632241      -1.35739213       0.00000000
Si      -1.35972496      -1.35874890      -1.35687638       0.00000000
Si      -1.36033947       1.35584181       1.36148377       0.00000000
Si       1.35706777      -1.36104579       1.35955829       0.00000000
Si       2.71255867      -2.71397916      -0.00213178       0.00000000
Si       2.71281931      -0.00097740      -2.71430289       0.00000000
Si      -2.70908631      -0.02767671       2.71908220       0.00000000
Si      -0.00223336       2.71360353      -2.71499056       0.00000000
Si      -0.00257382      -2.71653669      -2.71409659       0.00000000
Si      -2.71721502      -0.00076563      -2.71423413       0.00000000
