10
Lattice="16.28999089631971 0.0 0.0 0.0 16.28999089631971 0.0 0.0 0.0 34.383488856416385" Properties=species:S:1:pos:R:3:initial_magmoms:R:1 pbc="T T T"
Si      -1.32351852      -1.35982404       1.36640061       0.00000000
Si       1.35549090      -1.35293337      -1.36169007       0.00000000
Si      -1.35706777       1.36104579      -1.35955829       0.00000000
Si       1.34104167       1.36155078       1.38544907       0.00000000
Si      -2.60086254       0.01104462       2.74648586       0.00000000
Si       2.70658350      -2.70936909       0.00099712       0.00000000
Si       2.71230129       2.71549316       0.00306013       0.00000000
Si      -0.00149868      -2.71277370      -2.71588454       0.00000000
Si       2.71300176       0.00218286      -2.71664097       0.00000000
Si      -2.71679273       0.00229689      -2.71643467       0.00000000
