10
Lattice="16.28999089631971 0.0 0.0 0.0 16.28999089631971 0.0 0.0 0.0 34.383488856416385" Properties=species:S:1:pos:R:3:initial_magmoms:R:1 pbc="T T T"
Si      -1.01330316      -0.79814484       1.89752266       0.00000000
Si      -1.29016311       0.72814671      -1.82315113       0.00000000
Si       1.56908538       1.60638948       0.91656117       0.00000000
Si      -2.03875703       2.70484047      -0.52029124       0.00000000
Si       1.11094542      -1.39505931       2.97046003       0.00000000
Si       1.51857009      -2.67592409      -1.69486626       0.00000000
Si       2.88534996       0.21693393       2.32521912       0.00000000
Si      -2.60575003       0.83554668       2.59031596       0.00000000
Si      -0.02350647       1.92971340      -3.36752078       0.00000000
Si      -2.55767172      -2.52992660       1.58772725       0.00000000
