10
Lattice="16.2900001489832 0.0 0.0 0.0 16.2900001489832 0.0 0.0 0.0 29.50140192807311" Properties=species:S:1:pos:R:3:initial_magmoms:R:1 pbc="T T T"
H       -0.32338908       0.29528883      -1.51824519       0.00000000
Si      -1.79880698      -0.86496643       1.26066886       0.00000000
Si       0.75526957       1.88205702       1.21424841       0.00000000
Si       1.74420290      -1.66257371      -0.02715583       0.00000000
Si       2.29083014       0.64270241       2.53708832       0.00000000
Si      -0.50528322      -2.22523031       2.67334055       0.00000000
Si      -0.31369653       0.61944664      -3.63951400       0.00000000
Si      -3.14843349      -2.11395332      -0.16542890       0.00000000
H       -1.08729235      -2.75089233      -2.38231175       0.00000000
Si       0.87568525      -3.49386294       1.25437917       0.00000000
