10
Lattice="16.2900001489832 0.0 0.0 0.0 16.2900001489832 0.0 0.0 0.0 29.50140192807311" Properties=species:S:1:pos:R:3:initial_magmoms:R:1 pbc="T T T"
Si       1.28337508       1.32735482       1.45449582       0.00000000
Si      -1.53556057       1.23935461      -1.32283991       0.00000000
Si      -1.38720754      -1.40875595       1.34708121       0.00000000
Si       1.33260346      -1.35234368      -1.45898298       0.00000000
Si      -2.29083014      -0.64270241      -2.53708832       0.00000000
Si      -0.54662724      -2.30527611      -2.56424415       0.00000000
Si       2.51152706       2.68153276      -0.04088599       0.00000000
Si       2.65624742      -2.75551543      -0.02869601       0.00000000
Si       2.64758114      -0.07077223       2.78503855       0.00000000
Si      -2.91002934       2.55041455       0.08584023       0.00000000
