10
Lattice="16.2900001489832 0.0 0.0 0.0 16.2900001489832 0.0 0.0 0.0 29.50140192807311" Properties=species:S:1:pos:R:3:initial_magmoms:R:1 pbc="T T T"
Si       1.35213517       1.34578974       1.35966061       0.00000000
Si      -1.31828455       1.41108495      -1.34305132       0.00000000
Si       1.39808926      -1.28840754      -1.41409070       0.00000000
Si      -1.35506737      -1.32533697       1.44837133       0.00000000
Si      -2.64461636      -2.69781835       0.01947093       0.00000000
Si       2.71507061      -2.62822747       0.01126954       0.00000000
Si      -2.63981081       0.04364370      -2.75569645       0.00000000
Si      -2.60040530       2.79782497       0.07543508       0.00000000
Si       2.66393630       0.01548301       2.79873900       0.00000000
Si       0.03495834       2.78896321      -2.68032037       0.00000000
