10
Lattice="16.2900001489832 0.0 0.0 0.0 16.2900001489832 0.0 0.0 0.0 29.50140192807311" Properties=species:S:1:pos:R:3:initial_magmoms:R:1 pbc="T T T"
H        0.97943789       0.75904885       0.89690162       0.00000000
Si      -1.85801950       0.18370233       1.45456662       0.00000000
Si      -0.37275104       1.26560269      -1.99892649       0.00000000
Si       1.22668751      -1.97978888      -0.57386127       0.00000000
H       -1.88144452      -2.76688911       0.12057223       0.00000000
Si       3.30327157      -1.22889969       0.22335511       0.00000000
Si       2.53360164      -0.76087170       2.49584810       0.00000000
Si      -1.65532303       2.51538779       2.04940339       0.00000000
Si       1.37163593      -1.99684451      -2.97565891       0.00000000
Si      -1.76358637      -1.61835466       3.01530879       0.00000000
