10
Lattice="16.2900001489832 0.0 0.0 0.0 16.2900001489832 0.0 0.0 0.0 29.50140192807311" Properties=species:S:1:pos:R:3:initial_magmoms:R:1 pbc="T T T"
Si      -0.69221098       0.43882002       1.23540071       0.00000000
H        0.56822779       0.71351830      -1.43869487       0.00000000
H       -1.71398495       1.13342563       0.35401682       0.00000000
H       -1.65363050      -0.74945404      -1.57366378       0.00000000
H       -1.83840797       2.33717519      -0.78907400       0.00000000
Si       1.26726427       0.72984088      -2.80587834       0.00000000
Si       0.75632842       1.70008958       2.65538874       0.00000000
Si      -2.00458226      -1.09061225       2.44135311       0.00000000
H        0.11388339       3.26562375      -0.70449348       0.00000000
Si      -1.51242877      -2.13791265      -2.17118518       0.00000000
