10
Lattice="16.2900001489832 0.0 0.0 0.0 16.2900001489832 0.0 0.0 0.0 29.50140192807311" Properties=species:S:1:pos:R:3:initial_magmoms:R:1 pbc="T T T"
Si      -1.38350971      -1.38002365      -1.32527378       0.00000000
Si       1.33530760      -1.36026388       1.39821894       0.00000000
Si      -1.37437102       1.33017625       1.39544581       0.00000000
Si       1.36018243       1.33193557      -1.43257628       0.00000000
Si       2.69293250      -2.73587295       0.03563769       0.00000000
Si      -0.03846069      -2.77187385      -2.65805566       0.00000000
Si      -2.75652867       2.67415013       0.05478410       0.00000000
Si       2.71678106       2.71647155      -0.07339949       0.00000000
Si      -2.71461449      -0.05387103      -2.72977062       0.00000000
Si      -0.01555695       2.77521330       2.67406607       0.00000000
