10
Lattice="16.2900001489832 0.0 0.0 0.0 16.2900001489832 0.0 0.0 0.0 29.50140192807311" Properties=species:S:1:pos:R:3:initial_magmoms:R:1 pbc="T T T"
Si      -1.56318841      -1.05044437       1.44173351       0.00000000
Si       0.89114446       1.66208501       1.45223601       0.00000000
Si      -1.43000137       1.34934958      -1.41217311       0.00000000
Si       1.44422254      -1.51164685      -1.38565135       0.00000000
H        2.10308789      -0.78125212       1.41754236       0.00000000
H       -2.58584041       0.08263917       1.43754431       0.00000000
H        1.66760732       1.03503403       2.58535536       0.00000000
H        1.23354397      -2.80352532       1.46934682       0.00000000
Si       2.52120332       0.07105698      -2.79145215       0.00000000
Si       2.49121343       2.81804948       0.08478703       0.00000000
