10
Lattice="16.2900001489832 0.0 0.0 0.0 16.2900001489832 0.0 0.0 0.0 29.50140192807311" Properties=species:S:1:pos:R:3:initial_magmoms:R:1 pbc="T T T"
Si       0.09008370       0.64992214       2.32600853       0.00000000
Si       0.65987533       1.88701733      -1.36960258       0.00000000
Si       1.59542632      -1.88959115      -0.09764964       0.00000000
Si      -2.08696079      -0.53846595      -1.23250957       0.00000000
Si      -2.62730009       1.68355523       0.43018944       0.00000000
Si      -1.15219171       2.64155384       2.00954700       0.00000000
Si       1.93508912       0.62503102      -2.87278752       0.00000000
Si      -0.88454701      -1.98166223      -2.81974400       0.00000000
Si       3.17856836      -0.84564649      -1.50793466       0.00000000
Si       0.39708504      -3.41378130      -1.43571523       0.00000000
