10
Lattice="16.2900001489832 0.0 0.0 0.0 16.2900001489832 0.0 0.0 0.0 29.50140192807311" Properties=species:S:1:pos:R:3:initial_magmoms:R:1 pbc="T T T"
Si      -2.07658406      -0.75088919      -0.79721638       0.00000000
Si       1.14929209       1.76016547      -1.11149482       0.00000000
Si       1.89017759      -1.52044508       0.03032744       0.00000000
Si      -0.76966993       0.46802799       2.27249299       0.00000000
H       -2.32383368       1.98794854       0.67354651       0.00000000
Si      -3.30327157       1.22889969      -0.22335511       0.00000000
Si       1.54833193      -2.27859798       2.22611679       0.00000000
Si      -2.09860814      -2.85969487       0.44576618       0.00000000
Si       1.06955254      -0.36267910       3.49249397       0.00000000
Si       3.04728888       2.05419997       0.58218067       0.00000000
