10
Lattice="16.2900001489832 0.0 0.0 0.0 16.2900001489832 0.0 0.0 0.0 29.50140192807311" Properties=species:S:1:pos:R:3:initial_magmoms:R:1 pbc="T T T"
Si       1.11969316       1.45301670       1.52013939       0.00000000
Si      -1.44593299      -1.24857557       1.47500224       0.00000000
Si      -1.03035880       0.84929300      -2.01267414       0.00000000
Si       1.70626349      -1.26548459      -1.15731050       0.00000000
Si       0.43626249      -2.62563444      -2.63173156       0.00000000
Si       0.70522669       2.10048556      -3.03398318       0.00000000
Si       2.56411118       0.04884573       2.86511420       0.00000000
Si       2.17344440       3.20480096       0.32973717       0.00000000
Si      -1.06548004      -1.04454332      -3.59799098       0.00000000
Si      -0.12228903      -2.65174731       2.90528921       0.00000000
