10
Lattice="16.2900001489832 0.0 0.0 0.0 16.2900001489832 0.0 0.0 0.0 29.50140192807311" Properties=species:S:1:pos:R:3:initial_magmoms:R:1 pbc="T T T"
Si       2.07658406       0.75088919       0.79721638       0.00000000
Si      -1.22668751       1.97978888       0.57386127       0.00000000
Si       0.14494842      -0.01705563      -2.40179764       0.00000000
Si      -0.02202408      -2.10880568       1.24298257       0.00000000
H       -0.24724962       2.73883773       1.47076289       0.00000000
H       -3.10813203      -0.78710023       0.69443350       0.00000000
Si       1.30691413       1.21891718       3.06970937       0.00000000
Si       0.27890109      -3.69913323      -0.47559210       0.00000000
H        2.59540427      -1.53249805      -2.42646081       0.00000000
Si      -1.59943855       3.24539157      -1.42506522       0.00000000
