10
Lattice="16.2900001489832 0.0 0.0 0.0 16.2900001489832 0.0 0.0 0.0 29.50140192807311" Properties=species:S:1:pos:R:3:initial_magmoms:R:1 pbc="T T T"
Si       1.47828493       1.38614869      -1.17680502       0.00000000
Si      -1.28992366       1.35014779       1.43072949       0.00000000
Si       1.41931513      -1.36443412       1.32142680       0.00000000
Si      -1.40027212      -1.27084807      -1.48688541       0.00000000
Si      -2.62842410      -2.62502601       0.00849640       0.00000000
Si      -2.59191821       2.71236647       0.03192052       0.00000000
Si       2.72603378       0.09322767      -2.66710964       0.00000000
Si       0.07780104      -2.68921350       2.75012069       0.00000000
Si      -0.01356957      -2.60313225      -2.85984525       0.00000000
Si       0.35235270       2.77488750      -2.67365305       0.00000000
