10
Lattice="16.2900001489832 0.0 0.0 0.0 16.2900001489832 0.0 0.0 0.0 29.50140192807311" Properties=species:S:1:pos:R:3:initial_magmoms:R:1 pbc="T T T"
Si       1.37889964       1.31017213      -1.39494429       0.00000000
Si       1.37389861      -1.38794059       1.32620602       0.00000000
Si      -1.33656193      -1.36899532      -1.40403072       0.00000000
Si      -1.29355633       1.38179926       1.43999293       0.00000000
Si      -2.62832636       2.69586470      -0.02174253       0.00000000
Si       2.72676683       0.04044807       2.64595124       0.00000000
Si       2.73409734       2.69073335      -0.05233549       0.00000000
Si      -2.68980482      -2.74687358      -0.06676167       0.00000000
Si      -0.01938510      -2.81216879       2.63595026       0.00000000
Si      -2.65344554       0.01115865       2.80812044       0.00000000
