10
Lattice="16.2900001489832 0.0 0.0 0.0 16.2900001489832 0.0 0.0 0.0 29.50140192807311" Properties=species:S:1:pos:R:3:initial_magmoms:R:1 pbc="T T T"
Si      -0.23224653      -2.12236548       1.11069828       0.00000000
Si      -0.52905033       1.69498429       1.62977545       0.00000000
Si      -1.48196647      -1.01712366      -1.63157503       0.00000000
Si       2.20944530       0.32286617      -0.95599293       0.00000000
Si      -2.41183226      -2.53865643      -0.01652078       0.00000000
Si       3.21331656      -1.67590544      -0.25288602       0.00000000
H       -2.12001320       2.76758306      -1.22076801       0.00000000
Si       1.61901424      -3.31884970       0.17925052       0.00000000
Si      -0.72391132       3.45700845      -1.29112886       0.00000000
Si       0.56070181       0.99456315       3.58453834       0.00000000
