10
Lattice="16.2900001489832 0.0 0.0 0.0 16.2900001489832 0.0 0.0 0.0 29.50140192807311" Properties=species:S:1:pos:R:3:initial_magmoms:R:1 pbc="T T T"
Si       0.67650742      -1.89982127       1.10999025       0.00000000
Si      -0.22519296       1.63553230       1.64027795       0.00000000
Si      -2.14721750      -0.69183631      -0.77600488       0.00000000
Si       1.92176390       0.51500835      -1.34732903       0.00000000
H        0.04129515       2.24108048      -1.49395099       0.00000000
H        2.77703778      -0.73837684      -1.07069438       0.00000000
Si      -1.89169256       3.00509778       0.78408826       0.00000000
Si       1.70336387      -3.32433291      -0.41638279       0.00000000
Si      -0.66275866       3.55009602      -1.15905108       0.00000000
Si      -1.11420343       0.81345745       3.60182616       0.00000000
