10
Lattice="16.2900001489832 0.0 0.0 0.0 16.2900001489832 0.0 0.0 0.0 29.50140192807311" Properties=species:S:1:pos:R:3:initial_magmoms:R:1 pbc="T T T"
Si       0.93563245       2.13614030      -0.24846081       0.00000000
Si      -0.88146820       0.58166704       2.15770304       0.00000000
Si      -1.45529974      -0.43249950      -1.86637669       0.00000000
Si       1.74646721      -1.70643290      -0.09180836       0.00000000
H       -0.06674013       2.94075228      -1.03951140       0.00000000
Si       3.48205269      -0.45524034      -1.11311740       0.00000000
Si       2.97009057       1.81806176      -1.32399342       0.00000000
Si      -2.60623712      -2.47521356      -1.32175131       0.00000000
Si       1.44575380       3.04955319       1.86363306       0.00000000
H       -2.61592967      -2.79937137       0.79951749       0.00000000
