10
Lattice="16.2900001489832 0.0 0.0 0.0 16.2900001489832 0.0 0.0 0.0 29.50140192807311" Properties=species:S:1:pos:R:3:initial_magmoms:R:1 pbc="T T T"
Si      -1.30199455       1.36221868      -1.39880897       0.00000000
Si       1.28992366      -1.35014779      -1.43072949       0.00000000
Si       1.35519769       1.38056122       1.34260880       0.00000000
Si      -1.37889964      -1.31017213       1.39494429       0.00000000
Si       2.76820860       0.03600090      -2.60753451       0.00000000
Si      -2.71546157      -2.67916745      -0.00908643       0.00000000
Si       2.74631484       0.01453068       2.64842936       0.00000000
Si      -2.65961945       2.73782774      -0.03622772       0.00000000
Si      -2.77247658      -0.00107514      -2.64408970       0.00000000
Si      -0.00500103      -2.69811272       2.72115031       0.00000000
