10
Lattice="16.2900001489832 0.0 0.0 0.0 16.2900001489832 0.0 0.0 0.0 29.50140192807311" Properties=species:S:1:pos:R:3:initial_magmoms:R:1 pbc="T T T"
Si      -1.53899776      -1.07781157       1.38090162       0.00000000
Si       1.35117406       1.24620130       1.45052493       0.00000000
Si       1.37902996      -1.48980196      -1.18347824       0.00000000
Si      -1.46727289       1.37463166      -1.23374863       0.00000000
Si      -0.29255211       2.27577818       2.75894161       0.00000000
Si      -0.45419778      -3.06833556       1.99361624       0.00000000
Si       2.69573438      -0.04206078      -2.54957016       0.00000000
Si      -1.62512299       0.39829050       3.32023528       0.00000000
Si       2.47031336      -0.36588969       2.79000658       0.00000000
Si      -0.06939540      -2.75188602      -2.54181129       0.00000000
