10
Lattice="16.2900001489832 0.0 0.0 0.0 16.2900001489832 0.0 0.0 0.0 29.50140192807311" Properties=species:S:1:pos:R:3:initial_magmoms:R:1 pbc="T T T"
Si      -0.00721647       2.32332869      -0.02445666       0.00000000
Si      -0.70470541      -1.50669469      -1.62567475       0.00000000
Si      -0.88011613      -0.50645610       2.14696453       0.00000000
Si       2.22474161      -0.84178576      -0.04988687       0.00000000
Si       1.52234938      -2.44953547      -1.61611630       0.00000000
Si       1.55734030       2.37760697       1.68904376       0.00000000
Si      -0.08966016       1.48763539       3.10720566       0.00000000
Si      -2.23487399       2.74291023       0.57524784       0.00000000
H        2.52235991      -0.03402981       2.63456370       0.00000000
Si       2.59840163      -1.47043315       2.14548946       0.00000000
