10
Lattice="16.2900001489832 0.0 0.0 0.0 16.2900001489832 0.0 0.0 0.0 29.50140192807311" Properties=species:S:1:pos:R:3:initial_magmoms:R:1 pbc="T T T"
Si       1.31302288       0.21035277       1.84782031       0.00000000
Si      -0.67650742       1.89982127      -1.10999025       0.00000000
Si       1.02685645      -1.42451164      -1.52637303       0.00000000
Si      -0.62014402      -2.31448322      -0.10821114       0.00000000
H        2.10053036       1.16144443      -2.18068463       0.00000000
Si      -0.32479002       1.06559407       3.25188053       0.00000000
Si      -0.53770032      -1.47878992      -3.23987346       0.00000000
Si      -2.82372492       1.20798496      -1.88599512       0.00000000
Si      -0.25234839      -2.94418947       2.07486310       0.00000000
Si       1.24525648       2.41482962      -2.45731927       0.00000000
