10
Lattice="16.2900001489832 0.0 0.0 0.0 16.2900001489832 0.0 0.0 0.0 29.50140192807311" Properties=species:S:1:pos:R:3:initial_magmoms:R:1 pbc="T T T"
Si      -1.33708321      -1.33949413      -1.40792491       0.00000000
Si       1.46727289      -1.37463166       1.23374863       0.00000000
Si       1.37261170       1.35518140      -1.38096062       0.00000000
Si      -1.43545852       1.25191909       1.48309448       0.00000000
Si      -0.07172487      -2.45244323       2.61465025       0.00000000
Si      -2.69752628       2.65807190       0.05614117       0.00000000
Si      -3.01741302      -2.36524286      -0.10186834       0.00000000
Si       2.74465326       2.67921632       0.01666829       0.00000000
Si      -0.01273878       2.60754032       2.81732488       0.00000000
Si      -2.60252300       0.03484431      -2.82384469       0.00000000
