10
Lattice="16.2900001489832 0.0 0.0 0.0 16.2900001489832 0.0 0.0 0.0 29.50140192807311" Properties=species:S:1:pos:R:3:initial_magmoms:R:1 pbc="T T T"
Si       0.64757638       2.08759610      -0.86580714       0.00000000
Si      -1.33015996      -1.28816434      -1.45241302       0.00000000
Si      -1.06518682       0.08474058       2.11578154       0.00000000
Si       2.11426283      -0.64653382      -1.08140339       0.00000000
H       -0.03495834       0.52862679       3.15414239       0.00000000
Si       1.32357880       0.77936248      -2.81251615       0.00000000
H       -1.41522634       3.22644630      -0.26279849       0.00000000
Si      -0.20761605      -0.87040729      -3.51892722       0.00000000
Si      -2.86308156       1.59998752       1.69827770       0.00000000
H        1.67122370       0.42314904       3.28978983       0.00000000
