10
Lattice="16.2900001489832 0.0 0.0 0.0 16.2900001489832 0.0 0.0 0.0 29.50140192807311" Properties=species:S:1:pos:R:3:initial_magmoms:R:1 pbc="T T T"
Si       0.74805310       0.37299213      -2.21989199       0.00000000
Si      -0.96831019       1.76712293       1.31717859       0.00000000
Si       2.05711262      -0.50881815       1.21828989       0.00000000
Si      -1.70463449      -1.72599068      -0.46385054       0.00000000
H       -0.84936061      -2.97937587      -0.18721590       0.00000000
Si       0.20629656      -1.76769308      -3.16824406       0.00000000
H       -3.58510323       0.00008145      -0.61047251       0.00000000
Si       1.65029968      -2.66346389       1.97777399       0.00000000
Si       0.90197731       3.12587184       1.82938193       0.00000000
Si       2.50135070       1.54800613       2.35126173       0.00000000
