10
Lattice="16.2900001489832 0.0 0.0 0.0 16.2900001489832 0.0 0.0 0.0 29.50140192807311" Properties=species:S:1:pos:R:3:initial_magmoms:R:1 pbc="T T T"
Si      -1.26206776       1.40615281      -1.42695331       0.00000000
Si       1.42271974       1.35562123       1.33423040       0.00000000
Si       1.43545852      -1.25191909      -1.48309448       0.00000000
Si      -1.51744609      -1.18166032       1.50454200       0.00000000
H       -1.53510445      -2.62707203       1.12574400       0.00000000
H       -2.96973219      -0.81863767       1.35314080       0.00000000
Si       2.61017930      -0.35077257       2.50959576       0.00000000
Si      -2.58160664       2.78066393       0.02038547       0.00000000
Si      -2.55161675       0.03367143      -2.85585371       0.00000000
Si       0.09837531      -2.59141322      -2.89101938       0.00000000
