10
Lattice="16.2900001489832 0.0 0.0 0.0 16.2900001489832 0.0 0.0 0.0 29.50140192807311" Properties=species:S:1:pos:R:3:initial_magmoms:R:1 pbc="T T T"
Si      -2.09155457       0.21911679      -0.97478532       0.00000000
Si       1.48899887      -0.03704346      -1.85239303       0.00000000
Si      -0.11883555      -1.75197323       1.65626771       0.00000000
Si       0.69488254       2.12375990       1.01062953       0.00000000
H       -0.50898105      -2.83672434      -0.53612898       0.00000000
Si       3.34681311       0.37957329      -0.37696891       0.00000000
Si       0.17508492       1.56970441      -3.17145971       0.00000000
Si       0.68305600       1.48040263       3.28244398       0.00000000
Si      -0.41071977      -0.53884062       3.70629063       0.00000000
Si       1.98693530      -2.90861211       1.53147678       0.00000000
