10
Lattice="16.2900001489832 0.0 0.0 0.0 16.2900001489832 0.0 0.0 0.0 29.50140192807311" Properties=species:S:1:pos:R:3:initial_magmoms:R:1 pbc="T T T"
Si       0.29005974       1.88788070      -1.42636328       0.00000000
Si       0.41298408      -2.06374754      -1.13105425       0.00000000
Si      -2.29702523       0.55469080       0.48665513       0.00000000
Si       1.18490203       0.37719495       2.15551993       0.00000000
H        2.63275724       2.00365373       0.19444374       0.00000000
Si      -2.70383817      -1.59995494       1.24613922       0.00000000
Si       1.90086383       2.55761147       1.41748336       0.00000000
Si      -0.01086543       3.47820825       0.29221139       0.00000000
H        0.37693431      -2.20828871       2.76050518       0.00000000
Si      -1.85278715       2.61151508       1.61962697       0.00000000
