10
Lattice="16.2900001489832 0.0 0.0 0.0 16.2900001489832 0.0 0.0 0.0 29.50140192807311" Properties=species:S:1:pos:R:3:initial_magmoms:R:1 pbc="T T T"
Si       0.90433936      -1.96040378      -0.92135828       0.00000000
Si       1.47036799       1.29953476       1.29360697       0.00000000
Si      -1.07906590      -1.28427103       1.72370791       0.00000000
Si      -1.31090518       1.31826826      -1.58053761       0.00000000
Si      -0.99846298      -3.28588851      -0.95292478       0.00000000
Si      -2.63627588      -2.43064721       0.45113544       0.00000000
Si      -2.32083632       2.85014730      -0.11275436       0.00000000
Si       0.05240493       2.65641032       2.71117884       0.00000000
Si       2.67108436      -0.03950325       2.82216311       0.00000000
Si       3.30586657       2.09192924      -0.04764476       0.00000000
