10
Lattice="16.2900001489832 0.0 0.0 0.0 16.2900001489832 0.0 0.0 0.0 29.50140192807311" Properties=species:S:1:pos:R:3:initial_magmoms:R:1 pbc="T T T"
Si       1.42417444       1.36319608      -1.28452054       0.00000000
Si      -1.33419988       1.36992385       1.37768597       0.00000000
Si       1.34080548      -1.35998695       1.38680190       0.00000000
Si      -1.37127592      -1.35918874      -1.38004608       0.00000000
Si       0.07659558       2.76969099      -2.59178666       0.00000000
Si      -2.71279001      -2.68396812       0.04864781       0.00000000
Si       0.08698860       2.69236235       2.71710862       0.00000000
Si       2.72029970      -0.01238040      -2.71421748       0.00000000
Si       2.70601337      -2.73560905       0.04451762       0.00000000
Si      -0.02274084      -2.69448005       2.76687748       0.00000000
