10
Lattice="16.2900001489832 0.0 0.0 0.0 16.2900001489832 0.0 0.0 0.0 29.50140192807311" Properties=species:S:1:pos:R:3:initial_magmoms:R:1 pbc="T T T"
Si      -2.08239959      -0.04978224       1.04095697       0.00000000
Si       0.58925818       2.22801590       0.41204608       0.00000000
Si      -0.68883895       0.53563149      -2.22812288       0.00000000
Si       1.54287478      -1.43457886       1.28879824       0.00000000
H        2.65820222      -0.44132868      -1.41140607       0.00000000
H        2.77612554      -1.07903332      -0.97741095       0.00000000
Si       1.98637004       2.02642715       2.26355407       0.00000000
Si       2.08311635       2.73774630      -1.33414190       0.00000000
Si       3.26360379       0.08228079       1.85737876       0.00000000
Si      -2.39010140       2.10794231       2.01293966       0.00000000
