10
Lattice="16.2900001489832 0.0 0.0 0.0 16.2900001489832 0.0 0.0 0.0 29.50140192807311" Properties=species:S:1:pos:R:3:initial_magmoms:R:1 pbc="T T T"
Si      -1.55720998      -1.14637618      -1.27257247       0.00000000
Si      -1.58759083       1.28474344       1.16453834       0.00000000
Si       1.07906590       1.28427103      -1.72370791       0.00000000
Si       1.42087897      -1.57776796       1.23574912       0.00000000
H       -2.17557839      -2.31384791      -0.52462343       0.00000000
Si       0.08060292      -2.00161748      -2.67663270       0.00000000
Si       1.98340526      -0.67613275      -2.64506620       0.00000000
Si       2.39927267       0.03787425       2.58152903       0.00000000
Si      -2.53446338       2.41222322      -0.68676314       0.00000000
Si       2.54943389       2.58380579      -0.43010094       0.00000000
