10
Lattice="16.2900001489832 0.0 0.0 0.0 16.2900001489832 0.0 0.0 0.0 29.50140192807311" Properties=species:S:1:pos:R:3:initial_magmoms:R:1 pbc="T T T"
H        0.11792331      -0.63770464       0.43399512       0.00000000
H        0.55786735      -2.05214906      -1.64791881       0.00000000
Si       1.59396022       2.24090129      -0.04292454       0.00000000
Si       1.65317438       0.92589103      -2.04663026       0.00000000
Si       1.95396923      -1.36272367      -1.71827965       0.00000000
Si       2.33681681       0.80383006       1.65992588       0.00000000
Si      -2.65820222       0.44132868       1.41140607       0.00000000
Si      -1.11532744      -0.99325018       2.70020432       0.00000000
Si       2.98936164      -1.11070108       0.37741143       0.00000000
Si      -0.57508588       3.17907498       0.07726417       0.00000000
