10
Lattice="16.2900001489832 0.0 0.0 0.0 16.2900001489832 0.0 0.0 0.0 29.50140192807311" Properties=species:S:1:pos:R:3:initial_magmoms:R:1 pbc="T T T"
Si      -0.88739776       0.84642841       0.92303986       0.00000000
H        1.51638724      -1.73017721      -0.29566305       0.00000000
H        0.11367162      -0.26885016      -2.33187931       0.00000000
H        0.52452171       2.08630919      -1.09110935       0.00000000
H        1.81985366      -0.37432791      -2.19623187       0.00000000
Si      -2.33021936       2.16458264      -0.41532074       0.00000000
Si      -2.22519773      -0.51945552       2.28478917       0.00000000
Si       0.44732340       2.28723005       2.28956840       0.00000000
Si       2.12705048      -2.27739089       0.99455126       0.00000000
Si      -0.91655686      -0.71273638      -3.37024016       0.00000000
