10
Lattice="16.2900001489832 0.0 0.0 0.0 16.2900001489832 0.0 0.0 0.0 29.50140192807311" Properties=species:S:1:pos:R:3:initial_magmoms:R:1 pbc="T T T"
H       -0.69903649      -0.01632258       1.36718347       0.00000000
Si      -0.43865712       2.15192531      -0.85388858       0.00000000
Si      -0.77382388      -2.20168963      -0.63147751       0.00000000
Si       2.21633597      -0.98968267       0.04389809       0.00000000
H       -1.26726427      -0.72984088       2.80587834       0.00000000
Si       1.06539859      -3.03239672       0.58852347       0.00000000
H       -2.32798763      -0.68176909      -2.23042399       0.00000000
H       -1.15338088       2.53578287       2.10138486       0.00000000
H       -2.92089477      -1.47929491       1.23221456       0.00000000
Si      -2.80784217       2.34082415      -1.17185469       0.00000000
