10
Lattice="16.2900001489832 0.0 0.0 0.0 16.2900001489832 0.0 0.0 0.0 29.50140192807311" Properties=species:S:1:pos:R:3:initial_magmoms:R:1 pbc="T T T"
Si      -0.40681294      -2.15464574       0.75948409       0.00000000
Si       0.44423808       2.05682429       1.13297184       0.00000000
Si       2.29702523      -0.55469080      -0.48665513       0.00000000
Si      -2.05711262       0.50881815      -1.21828989       0.00000000
Si       2.58708497       1.33318990      -1.91301841       0.00000000
Si       2.28615980       2.92351746      -0.19444374       0.00000000
Si      -1.30905952       0.88181029      -3.43818188       0.00000000
Si      -3.02542281       2.27594108       0.09888870       0.00000000
Si      -1.79117837      -2.09616464       2.65456565       0.00000000
Si      -0.59513398      -3.62327070      -1.11152432       0.00000000
