10
Lattice="16.2900001489832 0.0 0.0 0.0 16.2900001489832 0.0 0.0 0.0 29.50140192807311" Properties=species:S:1:pos:R:3:initial_magmoms:R:1 pbc="T T T"
H       -0.14120172       1.38845861       0.59752139       0.00000000
Si      -2.29131884      -0.19141907      -0.74670998       0.00000000
Si      -0.22543731      -1.66995633       1.79536682       0.00000000
Si       2.00586917       0.66606390      -1.26617067       0.00000000
H        1.51242877       2.13791265       2.17118518       0.00000000
H        2.08065656       2.85143095       0.73249031       0.00000000
H        0.45170541       2.18598444      -2.86511715       0.00000000
Si      -1.78862898      -0.45804548       3.15594197       0.00000000
Si      -2.38575197       1.61063793      -2.30745215       0.00000000
Si      -3.44284266      -0.06938563       1.40541729       0.00000000
