10
Lattice="16.2900001489832 0.0 0.0 0.0 16.2900001489832 0.0 0.0 0.0 29.50140192807311" Properties=species:S:1:pos:R:3:initial_magmoms:R:1 pbc="T T T"
Si      -1.37166688      -1.44042697       1.25525515       0.00000000
Si       1.30808701      -1.40497993      -1.36677045       0.00000000
Si      -1.34408791       1.33910317      -1.40214263       0.00000000
Si       1.40116807       1.30179907       1.41627380       0.00000000
Si       0.12654072      -2.68213223       2.57240424       0.00000000
Si      -0.04250061       2.60174108       2.74026722       0.00000000
Si       2.66291003       2.69630453      -0.03183201       0.00000000
Si       2.65999412      -0.03603348      -2.72345142       0.00000000
Si      -2.69709460       2.70930395      -0.04218700       0.00000000
Si      -2.80170246      -0.18738387       2.60798293       0.00000000
