10
Lattice="16.2900001489832 0.0 0.0 0.0 16.2900001489832 0.0 0.0 0.0 29.50140192807311" Properties=species:S:1:pos:R:3:initial_magmoms:R:1 pbc="T T T"
Si      -1.56455677      -0.05427828      -1.71350043       0.00000000
Si      -1.02685645       1.42451164       1.52637303       0.00000000
Si      -1.64700047      -0.88997158       1.41816189       0.00000000
Si       2.29123739      -0.58600018       0.06351652       0.00000000
H        0.96501961      -2.41163678       0.94551993       0.00000000
H        1.07367391       2.58595607      -0.65431159       0.00000000
Si      -1.55734030      -2.37760697      -1.68904376       0.00000000
Si       3.38501316       1.43324308      -0.36033012       0.00000000
Si       0.66740131      -3.21939273      -1.73893064       0.00000000
Si       2.58312161      -1.79913278      -1.98650640       0.00000000
