10
Lattice="16.2900001489832 0.0 0.0 0.0 16.2900001489832 0.0 0.0 0.0 29.50140192807311" Properties=species:S:1:pos:R:3:initial_magmoms:R:1 pbc="T T T"
Si      -1.09377577      -2.01924326       0.42384664       0.00000000
Si       0.01182654       0.64335727      -2.27181446       0.00000000
Si       2.15104565      -0.99017137       0.02062148       0.00000000
Si       0.18832104       1.46862496       1.87100841       0.00000000
H       -2.31133925       1.15271299      -0.29398147       0.00000000
Si       3.30514329       1.00483237      -0.50618505       0.00000000
Si       1.86772997       0.28056267       3.07546215       0.00000000
Si       2.17621370      -1.87297535       2.20343021       0.00000000
Si      -0.68305600      -1.48040263      -3.28244398       0.00000000
Si      -3.38501316      -1.43324308       0.36033012       0.00000000
