10
Lattice="16.2900001489832 0.0 0.0 0.0 16.2900001489832 0.0 0.0 0.0 29.50140192807311" Properties=species:S:1:pos:R:3:initial_magmoms:R:1 pbc="T T T"
H        1.46844577      -0.29776491       0.11608802       0.00000000
Si      -0.71045578      -0.43339545       2.24210655       0.00000000
Si       0.37180296       2.26012349      -0.72384640       0.00000000
Si      -0.95775427      -1.73227862      -1.40034305       0.00000000
H       -2.23405949       1.18988677      -0.53636499       0.00000000
H       -1.67247803      -1.34842105       1.55493039       0.00000000
H        1.40203144       2.70400970       0.31451445       0.00000000
H        3.08579844      -1.50063481       0.32430891       0.00000000
Si       0.19137492      -1.35479044      -3.46904035       0.00000000
H        2.92315908      -1.56292777      -1.80781641       0.00000000
