10
Lattice="16.2900001489832 0.0 0.0 0.0 16.2900001489832 0.0 0.0 0.0 29.50140192807311" Properties=species:S:1:pos:R:3:initial_magmoms:R:1 pbc="T T T"
Si       1.34829073       1.38805462      -1.34809606       0.00000000
Si      -1.29612526       1.37557648       1.42969694       0.00000000
Si       1.34962651      -1.33475374       1.42002048       0.00000000
Si      -1.34038845      -1.35024553      -1.45825430       0.00000000
Si       2.65263104      -2.72848869       0.04401609       0.00000000
Si      -2.71963181      -2.68511005      -0.06333951       0.00000000
Si       2.68644908       0.04463460      -2.73711352       0.00000000
Si      -2.64370412       2.78207139       0.12243082       0.00000000
Si      -2.72029970       0.01238040       2.71421748       0.00000000
Si      -2.78485698       0.11085345      -2.65436504       0.00000000
