10
Lattice="16.2900001489832 0.0 0.0 0.0 16.2900001489832 0.0 0.0 0.0 29.50140192807311" Properties=species:S:1:pos:R:3:initial_magmoms:R:1 pbc="T T T"
Si       1.40017112      -1.31054680      -1.35842155       0.00000000
Si       1.37207087       1.33968961       1.36078167       0.00000000
Si      -1.35901281      -1.37228590       1.35570742       0.00000000
Si      -1.35381630       1.35542575      -1.37919054       0.00000000
Si       0.06117384      -2.68299560      -2.66143062       0.00000000
Si      -0.00845614       2.68007969       2.70188590       0.00000000
Si       2.69610580       2.68832243      -0.05693771       0.00000000
Si       0.03439308      -2.71634123       2.70513105       0.00000000
Si      -2.71492726      -0.00138465      -2.73533754       0.00000000
Si      -2.73758665      -2.72412785       0.00442521       0.00000000
