10
Lattice="16.2900001489832 0.0 0.0 0.0 16.2900001489832 0.0 0.0 0.0 29.50140192807311" Properties=species:S:1:pos:R:3:initial_magmoms:R:1 pbc="T T T"
Si       1.34615186       1.33126817       1.42143655       0.00000000
Si       1.41031817      -1.33241075      -1.36688846       0.00000000
Si      -1.34355523      -1.34366714       1.42288212       0.00000000
Si      -1.35919363       1.36938677      -1.40063806       0.00000000
Si       0.04599970      -2.70922527      -2.69083762       0.00000000
Si      -2.72572916      -2.67662898       0.04540266       0.00000000
Si       2.71006470       2.71974308       0.08272193       0.00000000
Si       2.73692691      -2.70008658       0.04664172       0.00000000
Si      -2.73113744       2.70768848      -0.00312715       0.00000000
Si      -0.01905604       2.70689027       2.76372083       0.00000000
