10
Lattice="16.2900001489832 0.0 0.0 0.0 16.2900001489832 0.0 0.0 0.0 29.50140192807311" Properties=species:S:1:pos:R:3:initial_magmoms:R:1 pbc="T T T"
Si      -1.34765542      -1.14580603      -1.63455468       0.00000000
Si       1.93603394       0.93054997      -1.15096769       0.00000000
Si       1.35586558      -1.72353089       1.06618067       0.00000000
Si      -1.65032363       1.49566636       1.07093039       0.00000000
H       -0.47053665       2.45105858      -1.99998854       0.00000000
Si       0.38874456      -2.09192924      -3.01126710       0.00000000
Si       1.97662862      -0.30592620      -3.18352578       0.00000000
Si      -2.51895530       0.43043067      -2.96683799       0.00000000
Si       0.60781249      -2.09652302       3.28607266       0.00000000
Si       0.81410905      -3.86421610       0.11782860       0.00000000
