10
Lattice="16.2900001489832 0.0 0.0 0.0 16.2900001489832 0.0 0.0 0.0 29.50140192807311" Properties=species:S:1:pos:R:3:initial_magmoms:R:1 pbc="T T T"
Si       1.00237258      -0.80461198       0.79105059       0.00000000
H       -1.61735266       1.20286990      -0.20822089       0.00000000
H       -0.16263936      -0.06229296      -2.13212532       0.00000000
Si       0.06674013      -2.94075228       1.03951140       0.00000000
Si       3.03683070      -1.12269052      -0.28448202       0.00000000
Si       1.51249393       0.10880091       2.90314446       0.00000000
H        2.34602066       1.71962129       1.64048446       0.00000000
H       -0.28105137       2.74331748       2.02642180       0.00000000
Si      -3.08579844       1.50063481      -0.32430891       0.00000000
Si      -0.67686580      -0.55860040      -3.44747483       0.00000000
