10
Lattice="16.2900001489832 0.0 0.0 0.0 16.2900001489832 0.0 0.0 0.0 29.50140192807311" Properties=species:S:1:pos:R:3:initial_magmoms:R:1 pbc="T T T"
Si       1.34962651       1.24898689       1.42609777       0.00000000
Si       1.24657597      -1.50255703      -1.28508107       0.00000000
Si      -1.35705475      -1.38336310       1.37645871       0.00000000
Si      -1.23579199       1.22808682      -1.63254858       0.00000000
H        2.06114114      -0.63693901      -2.21688285       0.00000000
Si      -2.00923468      -0.73096489      -2.79808997       0.00000000
Si      -0.38563317      -2.51498054      -2.64391564       0.00000000
Si      -2.79898366       2.43999767      -0.27197342       0.00000000
Si      -0.08101017       2.68501638       2.65796716       0.00000000
Si       3.14843349       2.11395332       0.16542890       0.00000000
