10
Lattice="16.2900001489832 0.0 0.0 0.0 16.2900001489832 0.0 0.0 0.0 29.50140192807311" Properties=species:S:1:pos:R:3:initial_magmoms:R:1 pbc="T T T"
Si      -1.37704258      -1.33446052      -1.36479386       0.00000000
Si      -1.35278677       1.35620653       1.37644691       0.00000000
Si       1.34542369       1.36340948      -1.38972254       0.00000000
Si       1.34061814      -1.37805256       1.38544484       0.00000000
Si       2.72517041      -2.62879877      -0.06564062       0.00000000
Si      -2.61058655      -0.09975996       2.76472388       0.00000000
Si      -2.70107750      -2.68309334       0.05292552       0.00000000
Si      -0.10090026       2.69163419      -2.70471803       0.00000000
Si       2.66694995       2.73085074       0.02292259       0.00000000
Si      -0.01580130      -2.72986193      -2.68492259       0.00000000
