10
Lattice="16.2900001489832 0.0 0.0 0.0 16.2900001489832 0.0 0.0 0.0 29.50140192807311" Properties=species:S:1:pos:R:3:initial_magmoms:R:1 pbc="T T T"
Si       1.68373442      -0.98569162      -1.32726807       0.00000000
Si       0.63017866       1.02840400       2.03645227       0.00000000
Si      -1.67402558      -1.67024630       0.13210728       0.00000000
Si      -0.96229918       1.52293582      -1.58000658       0.00000000
Si       0.20862603      -1.94369024      -2.90662563       0.00000000
Si      -1.66443077       1.51718545       2.71451250       0.00000000
Si      -0.87617395       0.04683375      -3.51934024       0.00000000
Si       2.20020887       2.66403404       1.25941485       0.00000000
Si      -0.93116899      -3.10731753       1.83495770       0.00000000
Si       3.13313718       0.75875563      -2.11023528       0.00000000
