10
Lattice="16.2900001489832 0.0 0.0 0.0 16.2900001489832 0.0 0.0 0.0 29.50140192807311" Properties=species:S:1:pos:R:3:initial_magmoms:R:1 pbc="T T T"
Si       0.19710900       0.82766233       2.20620334       0.00000000
Si      -1.22114728       1.66583171      -1.28452054       0.00000000
Si       2.17258103      -0.65119276      -0.94245179       0.00000000
Si      -1.89959321      -1.51835833       0.40664732       0.00000000
H        0.56176066       2.55844226       1.54861709       0.00000000
Si       0.39845340      -3.38768472       0.01265610       0.00000000
Si      -2.83050156       2.18204552       0.46591564       0.00000000
Si      -3.22369655       0.17945064       1.65614970       0.00000000
Si      -3.09022932      -1.53417592      -1.61393320       0.00000000
Si       1.89231158      -2.87795433      -1.73353188       0.00000000
