10
Lattice="10.86 0.0 0.0 0.0 10.86 0.0 0.0 0.0 10.86" Properties=species:S:1:pos:R:3:initial_magmoms:R:1 pbc="T T T"
Si      -1.42981674      -1.20830532      -1.24490352       0.00000000
Si       1.28518326      -1.20830532       1.47009648       0.00000000
Si      -1.42981674       1.50669468       1.47009648       0.00000000
Si       2.51760864       0.32534388      -2.44571544       0.00000000
Si      -0.07231674      -2.56580532      -2.60240352       0.00000000
Si       2.64268326      -2.56580532       0.11259648       0.00000000
Si      -2.78731674      -2.56580532       0.11259648       0.00000000
Si      -2.78731674       0.14919468      -2.60240352       0.00000000
Si      -0.07231674      -2.56580532       2.82759648       0.00000000
Si       2.64268326       0.14919468       2.82759648       0.00000000
