10
Lattice="10.86 0.0 0.0 0.0 10.86 0.0 0.0 0.0 10.86" Properties=species:S:1:pos:R:3:initial_magmoms:R:1 pbc="T T T"
Si       1.43355258       1.20009516      -1.27019646       0.00000000
Si      -1.28144742       1.20009516       1.44480354       0.00000000
Si       1.43355258      -1.51490484       1.44480354       0.00000000
Si      -2.43393234      -0.05271444      -2.54775600       0.00000000
Si      -0.04902204      -2.69625564      -2.47100838       0.00000000
Si       0.07605258       2.55759516      -2.62769646       0.00000000
Si      -2.63894742       2.55759516       0.08730354       0.00000000
Si       2.79105258       2.55759516       0.08730354       0.00000000
Si       0.07605258       2.55759516       2.80230354       0.00000000
Si       2.79105258      -0.15740484      -2.62769646       0.00000000
