10
Lattice="16.28999089631971 0.0 0.0 0.0 16.28999089631971 0.0 0.0 0.0 34.61538196595647" Properties=species:S:1:pos:R:3:initial_magmoms:R:1 pbc="T T T"
Si       0.76075929       1.81195299       1.30376008       0.00000000
Si      -1.89829488      -0.71531833       1.21269042       0.00000000
Si       1.79732457      -1.67110965       0.15841330       0.00000000
Si      -0.48469266      -2.05128995       2.68109998       0.00000000
Si       2.25144090       0.67417794       2.71364192       0.00000000
Si       2.26957167       2.93625621      -0.04791392       0.00000000
Si       3.55698666      -0.62172903       1.25300698       0.00000000
Si       0.90686430      -3.51871235       1.25699121       0.00000000
Si      -1.42890993      -1.52130518      -3.29200010       0.00000000
Si      -2.74306984       2.77694001       0.00671601       0.00000000
