10
Lattice="16.28999089631971 0.0 0.0 0.0 16.28999089631971 0.0 0.0 0.0 34.61538196595647" Properties=species:S:1:pos:R:3:initial_magmoms:R:1 pbc="T T T"
Si      -1.35735304       1.35776824       1.35723527       0.00000000
Si       1.35787087      -1.35743253       1.35716604       0.00000000
Si       1.35808264       1.35701890      -1.35744296       0.00000000
Si      -1.35874848      -1.35947110      -1.35643912       0.00000000
Si      -0.00043494       2.71435057       2.71374362       0.00000000
Si      -2.71385440       0.00027041       2.71485131       0.00000000
Si      -2.71277926      -0.00144981      -2.71606285       0.00000000
Si       0.00086826      -2.71496700       2.71415900       0.00000000
Si       2.71505593      -0.00080147       2.71450516       0.00000000
Si      -2.71530421      -2.71446201       0.00034615       0.00000000
