10
Lattice="16.28999089631971 0.0 0.0 0.0 16.28999089631971 0.0 0.0 0.0 34.61538196595647" Properties=species:S:1:pos:R:3:initial_magmoms:R:1 pbc="T T T"
Si       1.42402293       0.09210366       1.83143165       0.00000000
Si       1.35005004       0.39433203      -1.88757783       0.00000000
Si      -1.62228852       1.67187528       0.34116940       0.00000000
Si      -0.83279367      -2.36353239      -0.02821155       0.00000000
Si       2.91649644      -1.52984277       0.96403893       0.00000000
Si      -2.72486414       1.50154704      -1.78861240       0.00000000
Si       3.44701287      -0.37276407      -0.99782356       0.00000000
Si       0.01255959      -0.71252460      -3.56469403       0.00000000
Si      -2.89162324       0.81925668       2.22684338       0.00000000
Si      -2.87861730      -2.10742101      -1.34290449       0.00000000
