10
Lattice="16.28999089631971 0.0 0.0 0.0 16.28999089631971 0.0 0.0 0.0 34.61538196595647" Properties=species:S:1:pos:R:3:initial_magmoms:R:1 pbc="T T T"
Si      -0.66195297       1.82529450       1.32205499       0.00000000
Si      -1.70729856      -1.62880452      -0.25286551       0.00000000
Si      -0.89226099       1.39082391      -1.81782780       0.00000000
Si       2.63855483      -1.07486307       1.12122746       0.00000000
Si       2.70065231      -0.88127271      -1.31296217       0.00000000
Si       0.82961386      -2.04810912       2.47214685       0.00000000
Si      -2.07669060       0.68991408       2.70728927       0.00000000
Si      -2.46734109       2.47048668      -0.28048860       0.00000000
Si       1.09203110       2.67010272      -2.00177404       0.00000000
Si      -3.34455759      -0.71975736       1.26321984       0.00000000
