10
Lattice="16.28999089631971 0.0 0.0 0.0 16.28999089631971 0.0 0.0 0.0 34.61538196595647" Properties=species:S:1:pos:R:3:initial_magmoms:R:1 pbc="T T T"
Si       1.75966209       1.04938062       1.09459368       0.00000000
Si      -0.89046027      -1.84760270       1.09857791       0.00000000
Si       0.84564648      -0.64595456      -2.10366659       0.00000000
Si      -1.79732457       1.67110965      -0.15841330       0.00000000
Si      -2.28201723      -0.38018030       2.52268668       0.00000000
Si       0.45411633       2.34528759       2.55522862       0.00000000
Si       1.57750731       1.52151858      -2.88843236       0.00000000
Si      -1.15989687      -1.16870066      -3.38194413       0.00000000
Si      -1.03656528       3.48306264       1.14534678       0.00000000
Si       2.24090127       2.98434429      -0.79388904       0.00000000
