10
Lattice="16.28999089631971 0.0 0.0 0.0 16.28999089631971 0.0 0.0 0.0 34.61538196595647" Properties=species:S:1:pos:R:3:initial_magmoms:R:1 pbc="T T T"
Si      -1.75966209      -1.04938062      -1.09459368       0.00000000
Si      -1.30554576       1.29590697       1.46063494       0.00000000
Si       1.39929471      -1.40801216       1.42549338       0.00000000
Si       0.48123918       1.93496367      -1.88848272       0.00000000
Si      -2.79622737       2.43368202       0.05075310       0.00000000
Si       2.64225429       2.61741693       0.05930311       0.00000000
Si      -0.91401561      -1.69533518      -3.19826027       0.00000000
Si      -3.55698666       0.62172903      -1.25300698       0.00000000
Si       0.04473234       2.65890756       2.81825790       0.00000000
Si      -2.66766669      -0.05983317       2.81216559       0.00000000
