10
Lattice="16.28999089631971 0.0 0.0 0.0 16.28999089631971 0.0 0.0 0.0 34.61538196595647" Properties=species:S:1:pos:R:3:initial_magmoms:R:1 pbc="T T T"
Si       1.35444834       1.34510602      -1.36287758       0.00000000
Si       1.32879159      -1.21134949       1.50639303       0.00000000
Si      -1.35824391      -1.36915725      -1.36391604       0.00000000
Si      -1.50866577       1.21786483       1.39122759       0.00000000
Si      -0.44975061      -2.19541863       2.85123599       0.00000000
Si      -2.35160811      -0.61387562       2.78619365       0.00000000
Si       2.41228836       0.54401269       2.76300133       0.00000000
Si       0.00123804       2.70248656      -2.72388593       0.00000000
Si      -2.73378780       2.70186754       0.00723462       0.00000000
Si      -2.71443528      -0.01427819      -2.72419747       0.00000000
