10
Lattice="16.28999089631971 0.0 0.0 0.0 16.28999089631971 0.0 0.0 0.0 34.61538196595647" Properties=species:S:1:pos:R:3:initial_magmoms:R:1 pbc="T T T"
Si      -0.75849498       1.25587755       1.77847009       0.00000000
Si      -0.06919992       1.08750411      -2.06418561       0.00000000
Si      -1.90156428      -1.41452586      -0.21589626       0.00000000
Si       2.12100687      -0.99880506       0.72889651       0.00000000
Si       2.28042081       1.05285528      -2.01915097       0.00000000
Si       0.18893142      -0.26127531       3.39078625       0.00000000
Si       2.41000776       0.15962571       2.77892442       0.00000000
Si       1.39965309      -3.04700280       1.54872767       0.00000000
Si      -1.44249579      -2.39882793      -2.43190502       0.00000000
Si      -2.40707556      -2.03113820       2.13317411       0.00000000
