10
Lattice="16.28999089631971 0.0 0.0 0.0 16.28999089631971 0.0 0.0 0.0 34.61538196595647" Properties=species:S:1:pos:R:3:initial_magmoms:R:1 pbc="T T T"
Si       1.72164123      -1.02812543      -1.18848519       0.00000000
Si      -0.73186083      -2.16747314       0.78476576       0.00000000
Si      -1.17415062       1.04645331      -1.96068556       0.00000000
Si       0.66339396       1.46282571       2.09454332       0.00000000
Si      -1.57750731      -1.52151858       2.88843236       0.00000000
Si       2.59186932       0.77066361      -2.50937429       0.00000000
Si       3.06194985      -2.05881884       0.45633484       0.00000000
Si       0.65536299      -2.82537737      -2.37035884       0.00000000
Si       1.91987424       3.16475604       0.82294655       0.00000000
Si      -2.73740418      -2.69021924      -0.49351178       0.00000000
