10
Lattice="16.28999089631971 0.0 0.0 0.0 16.28999089631971 0.0 0.0 0.0 34.61538196595647" Properties=species:S:1:pos:R:3:initial_magmoms:R:1 pbc="T T T"
Si      -1.34530965      -1.35654975      -1.36910835       0.00000000
Si       1.36316349       1.36013355      -1.36716989       0.00000000
Si      -1.34654769       1.24659225       1.49500457       0.00000000
Si       1.56318840      -1.12829427       1.37589297       0.00000000
Si       0.51065892       2.20947786       2.61055511       0.00000000
Si       2.45517993       0.72830961       2.65745897       0.00000000
Si      -2.39163264      -0.38517705       2.92538218       0.00000000
Si      -2.69907381       2.71800279       0.01647693       0.00000000
Si      -2.70699075       0.00503361      -2.72689747       0.00000000
Si      -2.72709261      -2.70987408       0.00290769       0.00000000
