10
Lattice="16.28999089631971 0.0 0.0 0.0 16.28999089631971 0.0 0.0 0.0 34.61538196595647" Properties=species:S:1:pos:R:3:initial_magmoms:R:1 pbc="T T T"
Si       2.19973644      -0.72516564      -0.22593472       0.00000000
Si      -0.90139086      -0.12906567       2.15647027       0.00000000
Si      -0.56835810       2.23985871      -0.49178101       0.00000000
Si      -1.49136579      -1.78570980      -0.47835023       0.00000000
Si      -3.10034538       0.27763047       1.24532368       0.00000000
Si       1.67713695      -2.88196164       0.52210410       0.00000000
Si      -0.54393939      -3.30286266       1.13396593       0.00000000
Si      -2.87787285       2.10813777      -0.21956549       0.00000000
Si       3.25239624       0.75934206       1.32286218       0.00000000
Si      -0.73287081      -3.04158735      -2.25682032       0.00000000
