10
Lattice="16.28999089631971 0.0 0.0 0.0 16.28999089631971 0.0 0.0 0.0 34.61538196595647" Properties=species:S:1:pos:R:3:initial_magmoms:R:1 pbc="T T T"
Si      -0.19148895      -2.12556807       0.95230431       0.00000000
Si       0.90139086       0.12906567      -2.15647027       0.00000000
Si       1.23558021       1.28990736       1.51823150       0.00000000
Si      -2.19895452       0.40669614      -0.91114659       0.00000000
Si      -0.58997493      -1.65664413      -2.63482050       0.00000000
Si       0.35745147      -3.17379699      -1.02250434       0.00000000
Si      -3.33625716       0.09668115       1.09841591       0.00000000
Si       0.33303276       2.36892438      -2.64825128       0.00000000
Si      -2.56282425      -2.27414916       1.18789673       0.00000000
Si       0.56493720       3.53352906       0.87047350       0.00000000
