10
Lattice="16.28999089631971 0.0 0.0 0.0 16.28999089631971 0.0 0.0 0.0 34.61538196595647" Properties=species:S:1:pos:R:3:initial_magmoms:R:1 pbc="T T T"
Si      -2.15844129       0.80322732       0.34975401       0.00000000
Si       0.39278448      -2.16937188      -0.82685809       0.00000000
Si       0.28745334       1.19369862      -2.06390869       0.00000000
Si       0.82678266      -0.36559647       2.26492032       0.00000000
Si      -1.28332620       2.51766837       1.72363929       0.00000000
Si       2.54653425       0.47170953      -2.14435488       0.00000000
Si       2.70270648      -1.87084134      -1.34951604       0.00000000
Si      -3.04191315      -1.05037920       1.51217381       0.00000000
Si      -1.13961582      -2.22177681      -2.62983588       0.00000000
Si      -0.54946170       1.13961582       3.44198243       0.00000000
