10
Lattice="16.28999089631971 0.0 0.0 0.0 16.28999089631971 0.0 0.0 0.0 34.61538196595647" Properties=species:S:1:pos:R:3:initial_magmoms:R:1 pbc="T T T"
Si       1.35659862       1.35692442      -1.35726989       0.00000000
Si      -1.35786924      -1.35855342      -1.35671604       0.00000000
Si       1.35456237      -1.36042677       1.36149296       0.00000000
Si      -1.35861858       1.35729909       1.36170066       0.00000000
Si       2.71384884      -0.00070047      -2.71450516       0.00000000
Si      -0.00125433       2.71446786      -2.71464362       0.00000000
Si       2.71604799       2.71336014       0.00024231       0.00000000
Si      -0.00078192      -2.71608057      -2.71402054       0.00000000
Si      -2.71643895      -0.00035838      -2.71402054       0.00000000
Si       2.71472850      -2.71591767      -0.00072692       0.00000000
