10
Lattice="16.28999089631971 0.0 0.0 0.0 16.28999089631971 0.0 0.0 0.0 34.61538196595647" Properties=species:S:1:pos:R:3:initial_magmoms:R:1 pbc="T T T"
Si       1.34905635       1.35985662      -1.38343913       0.00000000
Si      -1.36790388      -1.35509994      -1.38198528       0.00000000
Si      -1.35448092       1.42568451       1.43217761       0.00000000
Si       1.35252612      -1.47141054       1.47852764       0.00000000
Si       2.68115481       2.72800485      -0.01038462       0.00000000
Si       2.69907381      -2.71800279      -0.01647693       0.00000000
Si      -2.72230009      -2.71016730      -0.00055385       0.00000000
Si      -2.73030337       2.70847314      -0.02620386       0.00000000
Si       2.70767493       0.00255753      -2.74513979       0.00000000
Si      -0.00791694      -2.71296918      -2.74337440       0.00000000
