10
Lattice="16.28999089631971 0.0 0.0 0.0 16.28999089631971 0.0 0.0 0.0 34.61538196595647" Properties=species:S:1:pos:R:3:initial_magmoms:R:1 pbc="T T T"
Si       1.33209846       1.36814823       1.37305451       0.00000000
Si       1.35861858      -1.35729909      -1.36170066       0.00000000
Si      -1.36006839       1.35651717      -1.36125066       0.00000000
Si      -1.34905635      -1.35985662       1.38343913       0.00000000
Si      -2.71437012       2.71541268      -0.00173077       0.00000000
Si       2.71375110       2.71645524       0.00564231       0.00000000
Si       2.71318095      -2.71772586      -0.00020769       0.00000000
Si      -2.71696023      -2.71495656       0.00145385       0.00000000
Si      -0.00040725       2.71461447      -2.71841670       0.00000000
Si       2.71521720      -0.00037467      -2.71897054       0.00000000
