10
Lattice="16.28999089631971 0.0 0.0 0.0 16.28999089631971 0.0 0.0 0.0 34.61538196595647" Properties=species:S:1:pos:R:3:initial_magmoms:R:1 pbc="T T T"
Si       0.73386450      -1.37805255       1.71834314       0.00000000
Si       1.99769157       1.08190035      -0.53169256       0.00000000
Si      -1.32597342       1.86882138       0.51739640       0.00000000
Si      -0.87511509      -1.71444105      -1.37388528       0.00000000
Si       1.28332620      -2.51766837      -1.72363929       0.00000000
Si      -1.33473744      -2.46703905       1.83735089       0.00000000
Si      -2.19256884       1.16844912       2.61052049       0.00000000
Si       2.11010886      -2.88326484       0.54128103       0.00000000
Si      -2.25214137      -0.61543620      -2.91264371       0.00000000
Si       2.20077900       3.05411436       0.74184267       0.00000000
