10
Lattice="16.28999089631971 0.0 0.0 0.0 16.28999089631971 0.0 0.0 0.0 34.61538196595647" Properties=species:S:1:pos:R:3:initial_magmoms:R:1 pbc="T T T"
Si       2.37133530       0.14858109      -0.23559242       0.00000000
Si      -0.48778776      -1.54007289       1.76244316       0.00000000
Si      -0.74722230      -0.91610073      -2.14352411       0.00000000
Si      -0.77343291       2.37083031      -0.08948081       0.00000000
Si       0.36386973       2.68084530      -2.09904332       0.00000000
Si       2.56282425       2.27414916      -1.18789673       0.00000000
Si      -0.35746776       0.93931398      -3.53464786       0.00000000
Si       2.92027572      -0.89964783      -2.21040107       0.00000000
Si       1.07320149      -1.02367989       3.48532091       0.00000000
Si      -2.81827914      -1.97679150      -1.73302007       0.00000000
