10
Lattice="16.28999089631971 0.0 0.0 0.0 16.28999089631971 0.0 0.0 0.0 34.61538196595647" Properties=species:S:1:pos:R:3:initial_magmoms:R:1 pbc="T T T"
Si      -0.34694442      -1.17540495      -1.94396632       0.00000000
Si       0.57590037      -1.46098494       1.77319716       0.00000000
Si       1.75361850       1.51014816      -0.53314641       0.00000000
Si      -2.04019218       1.40149386      -0.20471548       0.00000000
Si       0.41330988       2.54084157      -2.17796644       0.00000000
Si       1.67273865       0.28615014       3.04440174       0.00000000
Si      -0.65296836       0.74358963      -3.35984008       0.00000000
Si       3.07271754       1.45324719       1.55225844       0.00000000
Si      -2.42515746      -2.30128830      -1.99138942       0.00000000
Si      -1.30833135       3.56896700      -0.98948125       0.00000000
