10
Lattice="16.28999089631971 0.0 0.0 0.0 16.28999089631971 0.0 0.0 0.0 34.61538196595647" Properties=species:S:1:pos:R:3:initial_magmoms:R:1 pbc="T T T"
Si      -1.78652430       0.54638289       1.54575075       0.00000000
Si      -0.37484919      -2.36585276      -0.50853486       0.00000000
Si       2.20160979       0.17575281       1.10675823       0.00000000
Si       0.20636172       1.13761215      -2.22566646       0.00000000
Si       3.43328040      -1.43940069      -0.15597700       0.00000000
Si       1.06187994      -0.76589064      -3.49134399       0.00000000
Si       1.95056460      -0.70677097       3.31283237       0.00000000
Si       2.25339570       2.44420047      -2.10679717       0.00000000
Si      -1.20793608       2.52993474       2.77217441       0.00000000
Si      -0.15835509      -2.72696948      -2.92507064       0.00000000
