10
Lattice="16.28999089631971 0.0 0.0 0.0 16.28999089631971 0.0 0.0 0.0 34.61538196595647" Properties=species:S:1:pos:R:3:initial_magmoms:R:1 pbc="T T T"
Si      -1.35741312       1.35213516       1.35837758       0.00000000
Si       1.35832536      -1.36164852       1.35723527       0.00000000
Si      -1.35971001      -1.37451762      -1.34890334       0.00000000
Si       1.33358085       1.38767994      -1.36291912       0.00000000
Si       2.59711470       0.09705582      -2.80082212       0.00000000
Si       2.71513575       2.70912474      -0.00086539       0.00000000
Si      -2.70985779       2.71472850      -0.00211154       0.00000000
Si       0.00156384       2.71129131       2.71530131       0.00000000
Si      -2.71306692      -0.00408879       2.71578593       0.00000000
Si      -2.71278999      -2.71684620       0.00401539       0.00000000
