10
Lattice="16.28999089631971 0.0 0.0 0.0 16.28999089631971 0.0 0.0 0.0 34.61538196595647" Properties=species:S:1:pos:R:3:initial_magmoms:R:1 pbc="T T T"
Si      -1.33591032      -1.34035749       1.37613528       0.00000000
Si       1.35726651      -1.35456237      -1.35758142       0.00000000
Si      -1.35586557       1.35927018      -1.35820450       0.00000000
Si       1.35997065       1.34571690       1.39226606       0.00000000
Si      -2.51600679       0.22633326       2.74707825       0.00000000
Si       2.71352304      -2.71037907       0.00636923       0.00000000
Si       0.00040725      -2.71221984      -2.71384746       0.00000000
Si      -2.71422351       0.00169416      -2.71440131       0.00000000
Si       2.71601541       0.00171045      -2.71398592       0.00000000
Si      -2.71805166      -2.71200807       0.00398077       0.00000000
