10
Lattice="16.28999089631971 0.0 0.0 0.0 16.28999089631971 0.0 0.0 0.0 34.61538196595647" Properties=species:S:1:pos:R:3:initial_magmoms:R:1 pbc="T T T"
Si       0.18518472       1.44563976      -1.81872780       0.00000000
Si      -2.34962073       0.03464883      -0.04503464       0.00000000
Si       1.40309028       0.93141333       1.76988547       0.00000000
Si       1.04097987      -2.29379490      -0.43594636       0.00000000
Si      -2.28042081      -1.05285528       2.01915097       0.00000000
Si      -0.15941394      -2.05166034       2.74804748       0.00000000
Si       1.36528119      -0.12105099      -3.18967077       0.00000000
Si       1.07717625       3.30224364      -0.53716180       0.00000000
Si       2.81276172      -1.44816471      -1.76296239       0.00000000
Si       3.16120482      -0.67854366       1.70972390       0.00000000
