10
Lattice="16.28999089631971 0.0 0.0 0.0 16.28999089631971 0.0 0.0 0.0 34.61538196595647" Properties=species:S:1:pos:R:3:initial_magmoms:R:1 pbc="T T T"
Si       0.34749828      -1.18511379      -2.03431252       0.00000000
Si      -2.30992200      -0.29853054       0.52265794       0.00000000
Si      -0.15617223       2.34255087      -0.79483884       0.00000000
Si       1.78606818      -1.04425416       1.51916612       0.00000000
Si      -2.70270648       1.87084134       1.34951604       0.00000000
Si       2.45071647      -0.47063439      -2.71858977       0.00000000
Si       2.64158640      -2.94775695       0.25348858       0.00000000
Si      -2.41525314       3.06453996      -0.71439265       0.00000000
Si       0.03308499      -3.49059188      -1.92724708       0.00000000
Si      -2.84102487      -1.85228703       2.17637413       0.00000000
