10
Lattice="16.28999089631971 0.0 0.0 0.0 16.28999089631971 0.0 0.0 0.0 34.61538196595647" Properties=species:S:1:pos:R:3:initial_magmoms:R:1 pbc="T T T"
Si       1.22176629       1.95080895      -0.13011929       0.00000000
Si       0.14511132      -1.30966713       1.91343554       0.00000000
Si      -2.10258288      -0.15249069      -0.98913509       0.00000000
Si      -0.43347690      -3.29321898       0.68701187       0.00000000
Si      -2.44302759      -2.47752981      -0.36335787       0.00000000
Si       2.48565852      -0.88550811       2.29953572       0.00000000
Si      -0.01720224       3.03766146      -1.79633164       0.00000000
Si      -3.47882724       1.35272160       0.18792701       0.00000000
Si       1.36054080       2.95917624       2.01994713       0.00000000
Si       3.51733680       2.08042848      -0.69334649       0.00000000
