10
Lattice="16.28999089631971 0.0 0.0 0.0 16.28999089631971 0.0 0.0 0.0 34.61538196595647" Properties=species:S:1:pos:R:3:initial_magmoms:R:1 pbc="T T T"
Si      -0.46068120       1.97089452       1.16463518       0.00000000
Si      -2.34054720      -0.42415902      -0.38610019       0.00000000
Si       1.79615169      -0.50443614      -1.54066228       0.00000000
Si       0.87066792      -1.75086549       1.56454691       0.00000000
Si       1.89076401       2.16834561       1.67285850       0.00000000
Si       2.81127933      -0.17897823       1.99087019       0.00000000
Si      -2.48565852       0.88550811      -2.29953572       0.00000000
Si       1.06899867      -2.77834095      -2.05151637       0.00000000
Si       0.81795348      -3.66086473       0.15455777       0.00000000
Si       3.82202496      -0.32975847      -0.20942318       0.00000000
