10
Lattice="16.28999089631971 0.0 0.0 0.0 16.28999089631971 0.0 0.0 0.0 34.61538196595647" Properties=species:S:1:pos:R:3:initial_magmoms:R:1 pbc="T T T"
Si       1.26353385      -1.29062412      -1.43790300       0.00000000
Si       1.38155490       1.32144480       1.36205373       0.00000000
Si      -1.33358085      -1.38767994       1.36291912       0.00000000
Si      -1.45122723       1.33936380      -1.55215113       0.00000000
Si      -0.65647071      -2.24243253      -2.83736356       0.00000000
Si      -2.46922191      -0.56612637      -2.72122889       0.00000000
Si       2.43634869       0.33115941      -2.85924050       0.00000000
Si      -2.71800279       2.67871131      -0.02673347       0.00000000
Si       0.02642238       2.68066611       2.72160824       0.00000000
Si      -2.69099397      -0.03554478       2.72129670       0.00000000
