10
Lattice="16.28999089631971 0.0 0.0 0.0 16.28999089631971 0.0 0.0 0.0 34.61538196595647" Properties=species:S:1:pos:R:3:initial_magmoms:R:1 pbc="T T T"
Si      -1.76485860      -0.81836073       1.29219293       0.00000000
Si      -1.49152869       1.19702178      -1.37959682       0.00000000
Si       1.21912731      -1.55558097      -1.34418526       0.00000000
Si       1.77932412       0.97779096       1.61453155       0.00000000
Si      -0.49969575      -1.05020001       3.37012086       0.00000000
Si       2.62176147       2.61097749       0.08131158       0.00000000
Si      -0.14211396       2.53079811      -2.73880517       0.00000000
Si       2.57616576      -0.18541278      -2.73257439       0.00000000
Si      -2.65685013      -2.67496461       0.01062693       0.00000000
Si      -2.88528480       2.54959677       0.02315770       0.00000000
