10
Lattice="16.28999089631971 0.0 0.0 0.0 16.28999089631971 0.0 0.0 0.0 34.61538196595647" Properties=species:S:1:pos:R:3:initial_magmoms:R:1 pbc="T T T"
Si       2.16371925      -0.73787184      -0.27522706       0.00000000
Si      -1.95804171      -1.21787298      -0.18955394       0.00000000
Si       0.03640815       2.09287404      -1.07131206       0.00000000
Si       2.02494474      -1.74623913      -2.42529348       0.00000000
Si      -3.70099026       0.34614621       0.16300392       0.00000000
Si      -1.93359042      -2.79689526       1.56063537       0.00000000
Si       2.27432835       2.49489495      -1.82011242       0.00000000
Si      -1.20873429       2.08784043      -3.08374764       0.00000000
Si       3.33772326       0.59004009       2.08305100       0.00000000
Si      -1.26078084       3.78468828      -0.05327310       0.00000000
