10
Lattice="16.28999089631971 0.0 0.0 0.0 16.28999089631971 0.0 0.0 0.0 34.61538196595647" Properties=species:S:1:pos:R:3:initial_magmoms:R:1 pbc="T T T"
Si       1.23533586      -1.35307998      -1.55090844       0.00000000
Si      -1.61310096      -1.23390234       1.32057756       0.00000000
Si      -1.46043108       1.37181348      -1.52439304       0.00000000
Si       1.86812091       0.79645068       1.49081610       0.00000000
Si       2.62953180       2.64751596      -0.00283846       0.00000000
Si       2.64800466      -2.62791909      -0.11218852       0.00000000
Si       2.60040528       0.00760743      -2.92673218       0.00000000
Si      -2.85904161      -2.68929981      -0.17034239       0.00000000
Si      -0.11587077      -2.70809847      -2.93230526       0.00000000
Si      -0.11552868       2.72298597      -2.92628218       0.00000000
