10
Lattice="16.28999089631971 0.0 0.0 0.0 16.28999089631971 0.0 0.0 0.0 34.61538196595647" Properties=species:S:1:pos:R:3:initial_magmoms:R:1 pbc="T T T"
Si      -1.38683286       1.25260326      -1.39091606       0.00000000
Si       1.35352374       1.36210464       1.35902489       0.00000000
Si      -1.36019871      -1.35437992       1.36124027       0.00000000
Si       1.28345882      -1.38848629      -1.49269572       0.00000000
Si       0.43868385       2.10377205      -2.69867013       0.00000000
Si      -2.54392785      -0.35075628      -2.74914621       0.00000000
Si       2.71449134       2.70655092      -0.00961616       0.00000000
Si       2.69706104      -2.72445791      -0.02428617       0.00000000
Si       2.71066319       0.00408879       2.71986016       0.00000000
Si      -0.00616793      -2.71240121       2.72086400       0.00000000
