10
Lattice="16.28999089631971 0.0 0.0 0.0 16.28999089631971 0.0 0.0 0.0 34.61538196595647" Properties=species:S:1:pos:R:3:initial_magmoms:R:1 pbc="T T T"
Si       1.35599589       1.35570267      -1.35744296       0.00000000
Si      -1.35710255       1.35739683       1.35702758       0.00000000
Si       1.35806472      -1.35827649       1.35751219       0.00000000
Si      -1.35860846      -1.35840681      -1.35848142       0.00000000
Si      -2.71333475       0.00102627       2.71498977       0.00000000
Si      -2.71418183       0.00109143      -2.71460900       0.00000000
Si      -0.00042028      -2.71593396       2.71346669       0.00000000
Si      -2.71484972      -2.71495656      -0.00010385       0.00000000
Si      -2.71486601       2.71502172      -0.00034615       0.00000000
Si       2.71497285       2.71513575       0.00006923       0.00000000
