10
Lattice="16.28999089631971 0.0 0.0 0.0 16.28999089631971 0.0 0.0 0.0 34.61538196595647" Properties=species:S:1:pos:R:3:initial_magmoms:R:1 pbc="T T T"
Si      -1.17830457       1.79302401      -0.89124274       0.00000000
Si       0.24013089      -1.50354582      -1.78888932       0.00000000
Si       2.14197210       0.97586874       0.42649636       0.00000000
Si      -0.98743464      -0.68409855       2.08083562       0.00000000
Si      -3.28152276       1.07854461      -0.20696548       0.00000000
Si       1.10750823      -1.17877861       3.08167072       0.00000000
Si       2.13861636      -0.35878725      -2.80263597       0.00000000
Si       2.00127537       0.98890074       2.75486671       0.00000000
Si      -0.02979441       3.68504235      -0.14036545       0.00000000
Si       2.10434220       3.00537468      -0.76603883       0.00000000
