10
Lattice="16.28999089631971 0.0 0.0 0.0 16.28999089631971 0.0 0.0 0.0 34.61538196595647" Properties=species:S:1:pos:R:3:initial_magmoms:R:1 pbc="T T T"
Si      -0.27645759       0.17882999      -2.33453190       0.00000000
Si       2.37230034       0.23656175      -0.16151546       0.00000000
Si      -1.23167061       1.61515350       1.26273522       0.00000000
Si      -0.54630144      -2.28852413       0.43203482       0.00000000
Si       0.94912056      -1.88106236      -2.82454752       0.00000000
Si       0.61730955       2.34650934      -2.66133590       0.00000000
Si      -3.43328040       1.43940069       0.15597700       0.00000000
Si       2.96623537      -1.57319765      -1.63073156       0.00000000
Si       2.67598015       2.15612811      -1.54564690       0.00000000
Si       0.97883352      -2.98868462       2.11077794       0.00000000
