10
Lattice="16.28999089631971 0.0 0.0 0.0 16.28999089631971 0.0 0.0 0.0 34.61538196595647" Properties=species:S:1:pos:R:3:initial_magmoms:R:1 pbc="T T T"
Si       1.35624126       1.35654975      -1.35837758       0.00000000
Si      -1.35711990       1.35697329       1.35768527       0.00000000
Si       1.35751133      -1.35755973       1.35706219       0.00000000
Si      -1.35654975      -1.35769005      -1.35823912       0.00000000
Si       2.71442943      -0.00097740       2.71357054       0.00000000
Si       0.00100998      -2.71505756       2.71467823       0.00000000
Si       2.71484972       2.71495656       0.00010385       0.00000000
Si      -2.71586880       0.00070047       2.71408977       0.00000000
Si      -2.71441899      -2.71572708       0.00006923       0.00000000
Si       2.71486438      -2.71532797      -0.00017308       0.00000000
