10
Lattice="16.28999089631971 0.0 0.0 0.0 16.28999089631971 0.0 0.0 0.0 34.61538196595647" Properties=species:S:1:pos:R:3:initial_magmoms:R:1 pbc="T T T"
Si      -0.31011273      -0.68152473      -2.17107797       0.00000000
Si      -0.97340895       2.11515876       0.13666160       0.00000000
Si      -0.07623720      -1.84057452       1.43466992       0.00000000
Si       2.18523834       0.86509674       0.21555010       0.00000000
Si       0.73568898      -0.51290694       3.23124387       0.00000000
Si       1.82402388      -1.36119240      -2.79675135       0.00000000
Si      -0.84621663       2.95705854      -2.07564331       0.00000000
Si       3.20579122       0.34420770      -1.89031245       0.00000000
Si      -1.11071736       1.05142176      -3.43319012       0.00000000
Si       2.86010046       0.14809239       2.44107810       0.00000000
