10
Lattice="16.28999089631971 0.0 0.0 0.0 16.28999089631971 0.0 0.0 0.0 34.61538196595647" Properties=species:S:1:pos:R:3:initial_magmoms:R:1 pbc="T T T"
Si      -1.68412536      -0.99225648      -1.37060170       0.00000000
Si       1.30397901      -1.35241209       1.49626803       0.00000000
Si      -1.37399634       1.35850455       1.46929917       0.00000000
Si       2.00277472       0.63198684      -1.25657857       0.00000000
Si       2.60905757      -2.77257429       0.16873970       0.00000000
Si       2.83009984       2.58535332      -0.03377079       0.00000000
Si      -2.85694020      -2.61404001       0.05073579       0.00000000
Si      -2.82496293       2.70430290       0.09092774       0.00000000
Si       2.69214634       0.00545715       2.84975791       0.00000000
Si      -0.02021589       2.71423980       2.85024253       0.00000000
