10
Lattice="16.28999089631971 0.0 0.0 0.0 16.28999089631971 0.0 0.0 0.0 34.61538196595647" Properties=species:S:1:pos:R:3:initial_magmoms:R:1 pbc="T T T"
Si      -1.34276841       1.27728261      -1.43775069       0.00000000
Si       1.10478521       1.56235761       1.38115451       0.00000000
Si       1.37330631      -1.45187883      -1.41625453       0.00000000
Si      -1.78790895      -0.75813660       1.52882381       0.00000000
Si      -2.65351068       2.69793351       0.01440001       0.00000000
Si      -2.65072509      -2.73937527       0.25030397       0.00000000
Si       0.01450340       2.61744462      -2.80412443       0.00000000
Si       2.74112549       2.68397298       0.01647693       0.00000000
Si      -2.69910639      -0.09845676      -2.79948597       0.00000000
Si       2.73027635      -2.78845704       0.06936926       0.00000000
