10
Lattice="16.28999089631971 0.0 0.0 0.0 16.28999089631971 0.0 0.0 0.0 34.61538196595647" Properties=species:S:1:pos:R:3:initial_magmoms:R:1 pbc="T T T"
Si       1.36353816       1.64664207      -1.01547741       0.00000000
Si       1.68340860      -1.65723057      -0.33718862       0.00000000
Si      -0.22908627       0.60255081       2.31746650       0.00000000
Si      -1.82565288      -0.06893928      -1.64651618       0.00000000
Si      -1.62621441      -1.16704818       2.86470138       0.00000000
Si       1.89159480       0.04828356       3.12684382       0.00000000
Si      -2.97559656       2.04455790      -0.85655811       0.00000000
Si       2.76387936      -1.71543474       1.81817395       0.00000000
Si       0.58248153       3.73254399      -0.42992328       0.00000000
Si       0.73862118      -3.38895531      -1.72132006       0.00000000
