10
Lattice="16.28999089631971 0.0 0.0 0.0 16.28999089631971 0.0 0.0 0.0 34.61538196595647" Properties=species:S:1:pos:R:3:initial_magmoms:R:1 pbc="T T T"
Si      -1.39712814      -1.76959899       0.54723488       0.00000000
Si       2.12068107      -0.55426725       0.80937731       0.00000000
Si       0.22908627      -0.60255081      -2.31746650       0.00000000
Si      -1.21494078       2.04239133       0.50150793       0.00000000
Si      -3.41936874      -0.68007492       0.05846541       0.00000000
Si      -3.10225131       1.45210689      -0.79719269       0.00000000
Si       0.27595260       3.57299973      -0.47814254       0.00000000
Si       2.99296563      -2.31798555      -0.49929255       0.00000000
Si       1.98667953      -1.47191553       2.93254757       0.00000000
Si       1.59262443       1.04409126      -3.33294392       0.00000000
