10
Lattice="16.28999089631971 0.0 0.0 0.0 16.28999089631971 0.0 0.0 0.0 34.61538196595647" Properties=species:S:1:pos:R:3:initial_magmoms:R:1 pbc="T T T"
Si      -1.35725022       1.35744570      -1.36086989       0.00000000
Si       1.35938421      -1.35923760      -1.36055835       0.00000000
Si      -1.36506942      -1.36068741       1.37582374       0.00000000
Si       1.36624230       1.35930276       1.37907759       0.00000000
Si       2.71682184       2.71287144       0.00124615       0.00000000
Si      -2.71593396       2.71537854       0.00045000       0.00000000
Si       2.71561346      -2.71601541      -0.00398077       0.00000000
Si      -2.71430496      -0.00043983      -2.71758593       0.00000000
Si      -2.71627605      -2.71570590      -0.00557308       0.00000000
Si       0.00053757       2.71435192      -2.71765516       0.00000000
