10
Lattice="16.28999089631971 0.0 0.0 0.0 16.28999089631971 0.0 0.0 0.0 34.61538196595647" Properties=species:S:1:pos:R:3:initial_magmoms:R:1 pbc="T T T"
Si       1.33711578      -1.28060577      -1.54481613       0.00000000
Si       1.04659992       1.74903191       1.41542376       0.00000000
Si      -0.76141089      -1.85106528       1.49365457       0.00000000
Si      -1.38621384       1.41242349      -1.54100844       0.00000000
Si      -2.62953180      -2.64751596       0.00283846       0.00000000
Si       2.62031166       2.72677400      -0.12049621       0.00000000
Si       2.63363688      -2.71928970      -0.10280774       0.00000000
Si      -2.63256174       2.83480928      -0.12426929       0.00000000
Si      -0.81663399       3.58366058       1.34948142       0.00000000
Si      -0.02912652      -2.63990853      -2.92389372       0.00000000
