10
Lattice="16.28999089631971 0.0 0.0 0.0 16.28999089631971 0.0 0.0 0.0 34.61538196595647" Properties=species:S:1:pos:R:3:initial_magmoms:R:1 pbc="T T T"
Si       2.18776981      -0.57580263       0.55273873       0.00000000
Si      -1.38176734      -1.70540010      -0.90643890       0.00000000
Si      -1.02055288       0.52088904       2.10586255       0.00000000
Si       0.33808592       2.06446428      -1.23185829       0.00000000
Si       3.32507245      -0.26578764      -1.45682378       0.00000000
Si      -3.51590395      -1.02573243      -0.28076552       0.00000000
Si      -0.66820018       2.91053430       2.19998183       0.00000000
Si       2.93668627       1.32595713       1.84745858       0.00000000
Si      -3.20579122      -0.34420770       1.89031245       0.00000000
Si      -0.53419864       3.82818258       0.07681158       0.00000000
