10
Lattice="16.28999089631971 0.0 0.0 0.0 16.28999089631971 0.0 0.0 0.0 34.61538196595647" Properties=species:S:1:pos:R:3:initial_magmoms:R:1 pbc="T T T"
Si       1.37319324       1.33257087      -1.35229565       0.00000000
Si      -1.35851528       1.35153243       1.35996989       0.00000000
Si       1.35608874      -1.36435266       1.36007373       0.00000000
Si      -1.38816734      -1.35786924      -1.35348988       0.00000000
Si      -2.71236223       2.70878265       0.00048462       0.00000000
Si       2.71363218       2.70816363      -0.00058846       0.00000000
Si       0.00067604       2.70948312       2.71727439       0.00000000
Si      -2.71477315      -0.00503361       2.71717054       0.00000000
Si       2.71506570      -0.00491958       2.71758593       0.00000000
Si      -2.71408897      -2.71896390       0.00290769       0.00000000
