10
Lattice="16.28999089631971 0.0 0.0 0.0 16.28999089631971 0.0 0.0 0.0 34.61538196595647" Properties=species:S:1:pos:R:3:initial_magmoms:R:1 pbc="T T T"
Si       1.23523975      -1.24732530       1.53123305       0.00000000
Si      -0.82732512      -1.95336648      -1.22280778       0.00000000
Si       1.80894097       0.97324605      -1.35091938       0.00000000
Si      -1.47071563       1.45863918       1.51930458       0.00000000
Si      -0.82961386       2.04810912      -2.47214685       0.00000000
Si       2.53679446      -2.66546754       0.08699197       0.00000000
Si      -2.53691242       0.41930460      -2.72501235       0.00000000
Si       2.59819147       2.72080467       0.07507042       0.00000000
Si      -2.83009984      -2.58535332       0.03377079       0.00000000
Si       3.44696563      -0.95415417      -1.38106940       0.00000000
