10
Lattice="16.28999089631971 0.0 0.0 0.0 16.28999089631971 0.0 0.0 0.0 34.61538196595647" Properties=species:S:1:pos:R:3:initial_magmoms:R:1 pbc="T T T"
Si       0.47790462      -0.46819089       2.24563954       0.00000000
Si      -1.23168268       1.90448019       0.74343497       0.00000000
Si      -0.94398499      -2.05421787      -0.93153506       0.00000000
Si       1.75622001       0.98321553      -1.47752379       0.00000000
Si       0.47561587       3.53328471       0.99630048       0.00000000
Si      -2.21991553      -1.12303260      -2.76770903       0.00000000
Si      -2.70038908       2.45760714      -0.98858125       0.00000000
Si       0.51598738       1.84461444      -3.30310544       0.00000000
Si       2.17699071      -2.28569877       2.27655110       0.00000000
Si      -1.52487010      -1.10017773       3.50221811       0.00000000
