10
Lattice="16.28999089631971 0.0 0.0 0.0 16.28999089631971 0.0 0.0 0.0 34.61538196595647" Properties=species:S:1:pos:R:3:initial_magmoms:R:1 pbc="T T T"
Si       1.35704067      -1.35624024      -1.36215066       0.00000000
Si      -1.35768198       1.35899718      -1.36145835       0.00000000
Si      -1.35057954      -1.35356868       1.37783143       0.00000000
Si       1.35325488       1.35023316       1.38233144       0.00000000
Si       2.71458086      -2.71277370      -0.00197308       0.00000000
Si      -2.71682184      -2.71287144      -0.00124615       0.00000000
Si      -0.00115326      -2.71378368      -2.71931670       0.00000000
Si       2.71404329       0.00129423      -2.71914362       0.00000000
Si      -2.71628427       0.00148048      -2.71890131       0.00000000
Si      -0.00118063       2.71649501      -2.71907439       0.00000000
