10
Lattice="16.28999089631971 0.0 0.0 0.0 16.28999089631971 0.0 0.0 0.0 34.61538196595647" Properties=species:S:1:pos:R:3:initial_magmoms:R:1 pbc="T T T"
Si       1.34141634       1.36619343       1.36048912       0.00000000
Si       1.35430173      -1.35889551      -1.35951989       0.00000000
Si      -1.35754018       1.35653346      -1.36017758       0.00000000
Si      -1.36498960      -1.36679616       1.35896604       0.00000000
Si      -2.71458086       2.71277370       0.00197308       0.00000000
Si       2.71283886       2.71581993       0.00045000       0.00000000
Si       2.71437012      -2.71541268       0.00173077       0.00000000
Si       2.71396287      -0.00079821      -2.71668593       0.00000000
Si      -0.00053757       2.71406793      -2.71717054       0.00000000
Si      -2.71578924      -2.71611315      -0.00325385       0.00000000
