10
Lattice="16.28999089631971 0.0 0.0 0.0 16.28999089631971 0.0 0.0 0.0 34.61538196595647" Properties=species:S:1:pos:R:3:initial_magmoms:R:1 pbc="T T T"
Si      -0.68765207       2.26425203      -0.57080797       0.00000000
Si       1.65752868       0.22035483       1.99575096       0.00000000
Si      -2.17502681      -0.98140734       1.04856974       0.00000000
Si       1.00187573      -0.69395400      -2.75040133       0.00000000
Si      -1.39397018      -3.06730926       0.46301561       0.00000000
Si       1.03693832      -3.32395821       0.34795401       0.00000000
Si      -1.67920808       2.72657852       1.58548923       0.00000000
Si       1.20538344       3.74708186      -0.91800044       0.00000000
Si       2.95375656       2.17999689       1.70273159       0.00000000
Si       0.69913585       0.83684988       4.15814047       0.00000000
