10
Lattice="16.28999089631971 0.0 0.0 0.0 16.28999089631971 0.0 0.0 0.0 34.61538196595647" Properties=species:S:1:pos:R:3:initial_magmoms:R:1 pbc="T T T"
Si       1.29622788       1.95964206      -0.29301937       0.00000000
Si       1.77903090      -1.59757659       0.38630788       0.00000000
Si      -0.95839283       0.61649505       2.16238950       0.00000000
Si      -1.65752868      -0.22035483      -1.99575096       0.00000000
Si       0.17127306      -3.35837898       0.61864645       0.00000000
Si      -1.84632000       2.65236128       1.44197377       0.00000000
Si       3.37136211       1.44963148       0.68642341       0.00000000
Si       3.11652135      -0.49071996       2.06342407       0.00000000
Si       0.22473684       3.71305205       1.03146973       0.00000000
Si      -2.50469243      -0.99002475       2.77605134       0.00000000
