10
Lattice="10.86 0.0 0.0 0.0 10.86 0.0 0.0 0.0 10.86" Properties=species:S:1:pos:R:3:initial_magmoms:R:1 pbc="T T T"
Si      -1.19291670      -1.46485110       1.24212336       0.00000000
Si      -1.19291670       1.25014890      -1.47287664       0.00000000
Si       1.52208330       1.25014890       1.24212336       0.00000000
Si       1.38407442      -1.99737120      -0.96319512       0.00000000
Si       2.54335770      -0.15483102      -2.24677110       0.00000000
Si      -2.55041670      -0.10735110       2.59962336       0.00000000
Si      -2.55041670       2.60764890      -0.11537664       0.00000000
Si       0.16458330       2.60764890       2.59962336       0.00000000
Si       2.73792546      -0.11449698       2.60459724       0.00000000
Si      -2.55041670      -2.82235110      -0.11537664       0.00000000
