10
Lattice="10.86 0.0 0.0 0.0 10.86 0.0 0.0 0.0 10.86" Properties=species:S:1:pos:R:3:initial_magmoms:R:1 pbc="T T T"
Si       1.41207150      -0.97476102       1.41905448       0.00000000
Si       1.41207150       1.74023898      -1.29594552       0.00000000
Si      -1.30292850       1.74023898       1.41905448       0.00000000
Si      -2.51245014       0.09548112      -2.39764908       0.00000000
Si       2.76957150      -2.33226102       0.06155448       0.00000000
Si       0.05457150      -2.33226102       2.77655448       0.00000000
Si       0.02761698      -2.40836790      -2.71406604       0.00000000
Si      -2.86648614      -2.34013452       0.28206678       0.00000000
Si       2.76957150       0.38273898      -2.65344552       0.00000000
Si      -2.66042850       0.38273898       2.77655448       0.00000000
