10
Lattice="16.28999089631971 0.0 0.0 0.0 16.28999089631971 0.0 0.0 0.0 34.642051614445585" Properties=species:S:1:pos:R:3:initial_magmoms:R:1 pbc="T T T"
Si      -1.32982571       1.35348723      -1.34471513       0.00000000
Si       1.35965070      -1.24244645      -1.43756973       0.00000000
Si       1.35555213       1.35187452       1.34361004       0.00000000
Si      -1.35833321      -1.36023943       1.33470703       0.00000000
Si      -2.14318541      -0.53400249      -2.53186114       0.00000000
Si       0.45921443       2.27649492      -2.61303028       0.00000000
Si      -0.33432752      -2.23507434      -2.73131741       0.00000000
Si       2.25144023       0.56145114      -2.88384644       0.00000000
Si      -0.00023661       2.70980892       2.69551686       0.00000000
Si       2.71093226      -0.00327429       2.69603649       0.00000000
