10
Lattice="16.28999089631971 0.0 0.0 0.0 16.28999089631971 0.0 0.0 0.0 34.642051614445585" Properties=species:S:1:pos:R:3:initial_magmoms:R:1 pbc="T T T"
Si       2.08718883      -0.75592116      -0.62435405       0.00000000
Si      -1.17809280      -0.96008373      -1.79102971       0.00000000
Si      -0.53066304      -1.35944937       1.90133007       0.00000000
Si      -0.54007866       0.73876779       2.95049983       0.00000000
Si       1.15259895       2.81299697       1.10165250       0.00000000
Si       1.86251715       1.03662210       2.53545317       0.00000000
Si      -3.27834458      -0.01295055      -1.29821161       0.00000000
Si      -0.48425283      -3.22750512      -1.37196458       0.00000000
Si       3.37134582      -0.17181063       1.19037084       0.00000000
Si       2.65478130       0.61770051      -2.44223136       0.00000000
