10
Lattice="16.28999089631971 0.0 0.0 0.0 16.28999089631971 0.0 0.0 0.0 34.642051614445585" Properties=species:S:1:pos:R:3:initial_magmoms:R:1 pbc="T T T"
Si       1.25677350      -1.36602727      -1.41630643       0.00000000
Si      -1.41007869       1.33713207      -1.38048653       0.00000000
Si      -1.88796213      -1.18079694       0.96090176       0.00000000
Si       1.80675648       0.93292830       1.33739179       0.00000000
Si      -0.42932295      -2.41508047       2.40966781       0.00000000
Si      -3.19251420       0.90165150       1.10560170       0.00000000
Si       2.62607832      -2.64174555      -0.12568143       0.00000000
Si       2.63494008      -0.02565675      -2.73997996       0.00000000
Si      -0.07912053       2.68501554      -2.73765894       0.00000000
Si      -0.08009793      -2.73760685      -2.73689682       0.00000000
