10
Lattice="16.28999089631971 0.0 0.0 0.0 16.28999089631971 0.0 0.0 0.0 34.642051614445585" Properties=species:S:1:pos:R:3:initial_magmoms:R:1 pbc="T T T"
Si      -1.84319721       1.46509002       0.01856815       0.00000000
Si       2.25670257       0.61748874       0.36284105       0.00000000
Si      -0.06675642      -1.27931072      -2.06352424       0.00000000
Si      -0.17580168      -0.79561989       2.31658457       0.00000000
Si       2.96828235      -1.50535076      -0.45571644       0.00000000
Si       1.32638067      -2.99091635      -1.22729929       0.00000000
Si      -0.88876611       3.37145985       1.09101738       0.00000000
Si      -3.47700276       0.26630892       1.28400836       0.00000000
Si       1.02283281       0.80244540       3.60222111       0.00000000
Si       1.50816078      -0.29600559      -3.62227887       0.00000000
