10
Lattice="16.28999089631971 0.0 0.0 0.0 16.28999089631971 0.0 0.0 0.0 34.642051614445585" Properties=species:S:1:pos:R:3:initial_magmoms:R:1 pbc="T T T"
Si      -0.02972925       2.33451175       0.19759837       0.00000000
Si      -1.58092821      -0.41856264      -1.72226520       0.00000000
Si       2.28117015      -0.30608128      -0.60142099       0.00000000
Si      -0.46869588      -1.56776493       1.75403198       0.00000000
Si      -0.07209954      -1.62699537      -3.06734753       0.00000000
Si      -0.57464604      -3.49456242       0.20705566       0.00000000
Si      -1.09221192       2.95587752      -1.87042934       0.00000000
Si       3.36908151      -0.19090088       1.55535970       0.00000000
Si       2.58761763       1.13442257      -2.56167722       0.00000000
Si       0.72861912      -3.36484515      -1.73962088       0.00000000
