10
Lattice="16.28999089631971 0.0 0.0 0.0 16.28999089631971 0.0 0.0 0.0 34.642051614445585" Properties=species:S:1:pos:R:3:initial_magmoms:R:1 pbc="T T T"
Si       1.39844763      -0.70983675      -1.76317749       0.00000000
Si       0.22258656       2.28436299      -0.69408853       0.00000000
Si       1.63944189      -0.49734999       1.73470170       0.00000000
Si      -2.31422256      -0.80389521      -0.15692858       0.00000000
Si      -3.33692505       0.34847568       1.68277324       0.00000000
Si      -2.15788743       2.42773128       2.04176902       0.00000000
Si       0.33596496      -0.08847099      -3.83120520       0.00000000
Si      -0.30042018       3.67433982       1.15160637       0.00000000
Si       1.42817688      -3.04434850      -1.96077586       0.00000000
Si       3.79079703      -0.02826315       1.05097115       0.00000000
