10
Lattice="16.28999089631971 0.0 0.0 0.0 16.28999089631971 0.0 0.0 0.0 34.642051614445585" Properties=species:S:1:pos:R:3:initial_magmoms:R:1 pbc="T T T"
Si      -1.33095816      -1.34788347       1.35717241       0.00000000
Si       1.35992178      -1.35495333      -1.35838489       0.00000000
Si      -1.35692442       1.35957969      -1.35897380       0.00000000
Si       1.35265644       1.38183183       1.39309624       0.00000000
Si      -2.54801664       0.16983954       2.66286671       0.00000000
Si       0.07912053      -2.68501554       2.73765894       0.00000000
Si       2.71406061      -2.71067229      -0.00232102       0.00000000
Si      -2.71021617       2.71454931      -0.00083141       0.00000000
Si      -2.71386513       0.00115659      -2.71534945       0.00000000
Si      -2.70985779      -2.71937115       0.00512703       0.00000000
