10
Lattice="16.28999089631971 0.0 0.0 0.0 16.28999089631971 0.0 0.0 0.0 34.642051614445585" Properties=species:S:1:pos:R:3:initial_magmoms:R:1 pbc="T T T"
Si      -1.91691502      -0.35440524       1.23062493       0.00000000
Si       1.03899412       1.91594835       0.87419266       0.00000000
Si      -0.87209329       0.70955982      -2.12913632       0.00000000
Si       1.75482559      -1.67709785      -0.21852218       0.00000000
Si       1.35713782       1.01413395      -2.88949514       0.00000000
Si      -0.91677188      -1.31040181       3.15599659       0.00000000
Si       2.40056119       2.37757437      -1.07667557       0.00000000
Si       2.16530101      -1.19223741      -2.54487582       0.00000000
Si      -3.13715005      -2.08640039       0.25908805       0.00000000
Si      -0.73100886       3.54112020       1.37861586       0.00000000
