10
Lattice="16.28999089631971 0.0 0.0 0.0 16.28999089631971 0.0 0.0 0.0 34.642051614445585" Properties=species:S:1:pos:R:3:initial_magmoms:R:1 pbc="T T T"
Si       1.16372502       0.51992793      -1.99003044       0.00000000
Si       1.98045675       0.77046813       1.07326886       0.00000000
Si      -0.69959034      -1.95730866       1.18723435       0.00000000
Si      -1.89726372       1.78435773      -0.16404687       0.00000000
Si       0.63695529       2.02250124       2.56589524       0.00000000
Si      -2.10077469      -0.70521039       2.57283751       0.00000000
Si      -0.65415753       1.80612117      -2.87582819       0.00000000
Si      -0.68313744       3.44771334       1.06944092       0.00000000
Si      -3.50998186       0.61418187       1.08673770       0.00000000
Si       3.03316542       2.41502508      -0.51666851       0.00000000
