10
Lattice="16.28999089631971 0.0 0.0 0.0 16.28999089631971 0.0 0.0 0.0 34.642051614445585" Properties=species:S:1:pos:R:3:initial_magmoms:R:1 pbc="T T T"
Si      -1.34747622      -1.35982404       1.35526710       0.00000000
Si       1.35679410      -1.35495333      -1.36261122       0.00000000
Si      -1.35892809       1.35971001      -1.36337335       0.00000000
Si       1.38538305       1.35018036       1.36708005       0.00000000
Si      -0.01822851       2.70927135       2.61661955       0.00000000
Si       2.71145421      -2.71083519       0.00107390       0.00000000
Si      -2.71111212      -2.71437012      -0.00509238       0.00000000
Si       2.71332756       2.71505430      -0.00474596       0.00000000
Si      -2.71164969       2.71730232      -0.00318707       0.00000000
Si      -0.00089595      -2.71225242      -2.71943721       0.00000000
