10
Lattice="16.28999089631971 0.0 0.0 0.0 16.28999089631971 0.0 0.0 0.0 34.642051614445585" Properties=species:S:1:pos:R:3:initial_magmoms:R:1 pbc="T T T"
Si      -1.35604476      -1.35762489      -1.35620244       0.00000000
Si      -1.35272160       1.35759231       1.36018627       0.00000000
Si       1.35848826       1.35731538      -1.35627172       0.00000000
Si       1.35892809      -1.35971001       1.36337335       0.00000000
Si      -2.71390748       0.00030951      -2.71361735       0.00000000
Si      -2.71339761      -2.71433754       0.00117783       0.00000000
Si       0.00092853      -2.71490769      -2.71361735       0.00000000
Si       0.00146610       2.71529865      -2.71330557       0.00000000
Si       2.71585251       0.00092853      -2.71354806       0.00000000
Si      -2.71359960       2.71645524       0.00273672       0.00000000
