10
Lattice="16.28999089631971 0.0 0.0 0.0 16.28999089631971 0.0 0.0 0.0 34.642051614445585" Properties=species:S:1:pos:R:3:initial_magmoms:R:1 pbc="T T T"
Si       0.96225030       1.60495596      -1.39773828       0.00000000
Si      -1.39857795       1.08784620       1.62426278       0.00000000
Si      -1.77098364      -1.22168484      -1.30753033       0.00000000
Si       2.01403044      -1.91466144       0.26747143       0.00000000
Si      -1.65262050      -1.32739065       2.03996763       0.00000000
Si       0.84559761      -1.58980626       2.43357084       0.00000000
Si       2.36586186       0.24586497      -2.64727778       0.00000000
Si      -0.36699741      -2.46413943      -2.65909073       0.00000000
Si      -2.27173824      -2.92196988       0.28884559       0.00000000
Si       2.04851637       3.25107675      -0.19551985       0.00000000
