10
Lattice="16.28999089631971 0.0 0.0 0.0 16.28999089631971 0.0 0.0 0.0 34.642051614445585" Properties=species:S:1:pos:R:3:initial_magmoms:R:1 pbc="T T T"
Si      -2.15287011       0.90262890      -0.20954989       0.00000000
Si       0.46776735      -0.40086432      -2.26548752       0.00000000
Si       1.62062694       1.26861633       1.24621386       0.00000000
Si       0.42044490      -2.00598318       1.29440098       0.00000000
Si       2.47070430      -0.79413750       2.25388242       0.00000000
Si       0.94345164      -3.39596001      -0.55129392       0.00000000
Si      -0.36463536      -2.66022216      -2.43506045       0.00000000
Si      -1.69016895       3.18045960      -0.42692888       0.00000000
Si       2.79621108       2.43519210      -0.41182494       0.00000000
Si      -3.36251664       0.67298877       1.77627219       0.00000000
