10
Lattice="16.28999089631971 0.0 0.0 0.0 16.28999089631971 0.0 0.0 0.0 34.642051614445585" Properties=species:S:1:pos:R:3:initial_magmoms:R:1 pbc="T T T"
Si      -1.78905155      -0.02182534       1.51617952       0.00000000
Si       0.26369275      -2.32740673      -0.27782941       0.00000000
Si       1.39343520       1.56046960       1.08945849       0.00000000
Si      -1.00014314       0.95599657      -1.92537166       0.00000000
Si       0.91677188       1.31040181      -3.15599659       0.00000000
Si      -0.22026849       3.20069341       1.67168778       0.00000000
Si      -1.25990348      -2.72985118      -2.03300458       0.00000000
Si      -3.60571235       0.81629353       0.10184769       0.00000000
Si      -2.22037817      -0.77599858      -2.89690854       0.00000000
Si      -1.43821382       1.73866591       3.03422971       0.00000000
