10
Lattice="16.28999089631971 0.0 0.0 0.0 16.28999089631971 0.0 0.0 0.0 34.642051614445585" Properties=species:S:1:pos:R:3:initial_magmoms:R:1 pbc="T T T"
Si       1.33687143       1.37157957       1.32059039       0.00000000
Si      -1.35470898       1.35250724      -1.35935487       0.00000000
Si       1.35959598      -1.36358703      -1.35904309       0.00000000
Si      -1.38401469      -1.35941679       1.35866202       0.00000000
Si       2.70617625       0.09586129       2.61121538       0.00000000
Si      -0.01635516      -2.72917773       2.62011840       0.00000000
Si      -2.70888039       2.70325124       0.00436490       0.00000000
Si       0.00213399       2.70893645      -2.71631943       0.00000000
Si       2.71503801       2.71195010      -0.00308314       0.00000000
Si      -2.71340901      -0.00588959      -2.71559194       0.00000000
