10
Lattice="16.28999089631971 0.0 0.0 0.0 16.28999089631971 0.0 0.0 0.0 34.642051614445585" Properties=species:S:1:pos:R:3:initial_magmoms:R:1 pbc="T T T"
Si       2.10165435      -0.97174737       0.51869573       0.00000000
Si      -1.03086378      -0.07741008       2.16779688       0.00000000
Si      -1.88634942      -0.64760895      -1.35744955       0.00000000
Si       0.72624078       2.17388421      -0.75436574       0.00000000
Si      -0.80296668       2.20333653       2.66411383       0.00000000
Si      -0.48498588       2.34800802      -2.78484144       0.00000000
Si      -0.23537421       3.57695820       0.84623651       0.00000000
Si      -2.61459387       1.39201308      -2.29191942       0.00000000
Si       3.63768732      -0.08700489      -1.14301513       0.00000000
Si       1.78737138      -3.30491520       0.78104013       0.00000000
