10
Lattice="16.28999089631971 0.0 0.0 0.0 16.28999089631971 0.0 0.0 0.0 34.642051614445585" Properties=species:S:1:pos:R:3:initial_magmoms:R:1 pbc="T T T"
Si      -1.36479249      -1.32322041      -1.36486988       0.00000000
Si      -1.35609363       1.35842310       1.35679135       0.00000000
Si       1.35884664      -1.35738054       1.35738027       0.00000000
Si       1.33635015       1.36954917      -1.37527290       0.00000000
Si       0.00110772      -2.71433754       2.71403305       0.00000000
Si      -2.71406061       0.00042354       2.71441411       0.00000000
Si       2.74685238       0.00079821      -2.68302493       0.00000000
Si       0.00089595       2.71632492       2.71462197       0.00000000
Si      -2.71684620      -2.71430170      -0.00263280       0.00000000
Si       2.71834488      -2.71292845      -0.00360278       0.00000000
