10
Lattice="16.28999089631971 0.0 0.0 0.0 16.28999089631971 0.0 0.0 0.0 34.642051614445585" Properties=species:S:1:pos:R:3:initial_magmoms:R:1 pbc="T T T"
Si      -1.35788553       1.35710361      -1.35734562       0.00000000
Si       1.35728280      -1.35765747      -1.35772669       0.00000000
Si      -1.35856971      -1.35715737       1.35786526       0.00000000
Si       1.35816246       1.36014984       1.35699920       0.00000000
Si      -0.00008145       2.71094922       2.71631943       0.00000000
Si      -2.71448415       2.71438641      -0.00017321       0.00000000
Si       2.71502172      -0.00070047      -2.71437947       0.00000000
Si      -2.71656927       0.00289962       2.71292450       0.00000000
Si       2.71492398      -2.71494382       0.00006928       0.00000000
Si      -2.71526607      -2.71461165       0.00013857       0.00000000
