10
Lattice="16.28999089631971 0.0 0.0 0.0 16.28999089631971 0.0 0.0 0.0 34.642051614445585" Properties=species:S:1:pos:R:3:initial_magmoms:R:1 pbc="T T T"
Si      -1.35669636      -1.35745428      -1.35772669       0.00000000
Si      -1.35799956       1.36005699       1.35505925       0.00000000
Si       1.35856971       1.35715737      -1.35786526       0.00000000
Si       1.35809730      -1.35824621       1.35821168       0.00000000
Si      -2.73616614       0.01968647       2.67873278       0.00000000
Si       0.01532889       2.70447069       2.71437947       0.00000000
Si      -2.71213839       2.71577595      -0.00100462       0.00000000
Si      -2.71342530      -0.00082753      -2.71486446       0.00000000
Si       0.00197109      -2.70901301       2.71978363       0.00000000
Si      -2.71344159      -2.71548014      -0.00090069       0.00000000
