10
Lattice="16.28999089631971 0.0 0.0 0.0 16.28999089631971 0.0 0.0 0.0 34.642051614445585" Properties=species:S:1:pos:R:3:initial_magmoms:R:1 pbc="T T T"
Si      -0.07620462      -1.57193939       1.73678023       0.00000000
Si       1.85328072       0.88430265      -1.26408917       0.00000000
Si      -0.90473031      -1.72196328      -1.46501318       0.00000000
Si      -1.72405215       1.85271057      -0.00193996       0.00000000
Si       0.47745990       2.23853922      -2.71999149       0.00000000
Si      -2.27403513      -0.44624500      -2.75563818       0.00000000
Si      -2.25003996      -1.12675649       2.59625001       0.00000000
Si      -2.54099565      -2.90088152      -0.25389174       0.00000000
Si      -3.53080863       0.91978227      -1.33933175       0.00000000
Si      -0.75693114       3.64961160      -1.33988602       0.00000000
