10
Lattice="16.28999089631971 0.0 0.0 0.0 16.28999089631971 0.0 0.0 0.0 34.642051614445585" Properties=species:S:1:pos:R:3:initial_magmoms:R:1 pbc="T T T"
Si       2.04517692      -0.58033125      -1.02547458       0.00000000
Si      -0.57036177      -1.29421607       1.91657258       0.00000000
Si      -2.03048334      -0.08487090      -1.24998985       0.00000000
Si      -0.29709702       2.14532784       1.04865013       0.00000000
Si      -1.28194155       0.82862343       2.73513007       0.00000000
Si       2.51455698       1.54543230      -1.97695371       0.00000000
Si      -2.21226345      -2.77978166       1.14498973       0.00000000
Si      -3.60540054      -1.06817603       0.30876478       0.00000000
Si       1.70414577      -2.47533785      -2.32133053       0.00000000
Si      -2.75815764       2.16813384      -1.54108717       0.00000000
