10
Lattice="16.28999089631971 0.0 0.0 0.0 16.28999089631971 0.0 0.0 0.0 34.642051614445585" Properties=species:S:1:pos:R:3:initial_magmoms:R:1 pbc="T T T"
Si       1.23416298      -1.39896891       1.43208243       0.00000000
Si      -1.47936006       1.32436071       1.38836760       0.00000000
Si      -1.18856727      -1.74125439      -1.21782815       0.00000000
Si       1.92490785       0.71553825      -1.43358039       0.00000000
Si       2.62638783       2.58582573       0.04182684       0.00000000
Si       2.45117259      -2.76597684      -0.01898732       0.00000000
Si       2.59784775      -0.04851162       2.78185530       0.00000000
Si       0.47172582      -3.56531085      -1.30273729       0.00000000
Si      -0.12113244       2.66862780       2.77530795       0.00000000
Si      -0.11823282      -2.76012873       2.77679755       0.00000000
