10
Lattice="16.28999089631971 0.0 0.0 0.0 16.28999089631971 0.0 0.0 0.0 34.642051614445585" Properties=species:S:1:pos:R:3:initial_magmoms:R:1 pbc="T T T"
Si      -0.97433748      -1.09956101      -1.88359333       0.00000000
Si       0.60448932       2.23991247      -0.68161739       0.00000000
Si       1.95576111      -1.17597740       0.86899635       0.00000000
Si      -2.08093999       0.02304546       1.73345459       0.00000000
Si      -1.31259933      -2.38577054       1.84160714       0.00000000
Si      -0.41821317       3.39228336       1.15808443       0.00000000
Si       0.97248042      -3.34104872       1.02789953       0.00000000
Si       0.36336474      -0.71695778      -3.79268321       0.00000000
Si      -0.50399631       2.76994020      -2.78155045       0.00000000
Si      -1.55040238      -3.37975376      -1.48742660       0.00000000
