10
Lattice="16.28999089631971 0.0 0.0 0.0 16.28999089631971 0.0 0.0 0.0 34.642051614445585" Properties=species:S:1:pos:R:3:initial_magmoms:R:1 pbc="T T T"
Si       1.35738054      -1.35703845       1.35703385       0.00000000
Si      -1.35773892      -1.35666378      -1.35706849       0.00000000
Si       1.35834165       1.35666378      -1.35710313       0.00000000
Si      -1.35852084       1.35847197       1.35734562       0.00000000
Si       2.71404432      -2.71391400      -0.00010393       0.00000000
Si       2.71601541      -0.00032580      -2.71243952       0.00000000
Si       0.00143352      -2.71409319       2.71486446       0.00000000
Si       2.71536381       0.00109143       2.71396377       0.00000000
Si      -0.00006516      -2.71194291      -2.71749726       0.00000000
Si      -0.00112401       2.71601541       2.71361735       0.00000000
