10
Lattice="16.28999089631971 0.0 0.0 0.0 16.28999089631971 0.0 0.0 0.0 34.642051614445585" Properties=species:S:1:pos:R:3:initial_magmoms:R:1 pbc="T T T"
Si       1.02270249      -1.15237089      -1.83970182       0.00000000
Si       1.17903762       2.07925560       0.35899578       0.00000000
Si      -2.07912691       0.99212616      -1.00960852       0.00000000
Si      -0.48545829      -0.54056736       2.46353624       0.00000000
Si       0.41821317      -3.39228336      -1.15808443       0.00000000
Si      -1.07054622       2.67437817      -2.30265846       0.00000000
Si      -2.27768409       1.17447642       2.73435240       0.00000000
Si       3.33692505      -0.34847568      -1.68277324       0.00000000
Si      -2.77588835       2.42950689       0.71927332       0.00000000
Si      -1.66272682      -3.36923789       0.57537016       0.00000000
