10
Lattice="16.28999089631971 0.0 0.0 0.0 16.28999089631971 0.0 0.0 0.0 34.642051614445585" Properties=species:S:1:pos:R:3:initial_magmoms:R:1 pbc="T T T"
Si      -1.35081567      -1.36256076       1.39138492       0.00000000
Si       1.36904418       1.35151614       1.39280525       0.00000000
Si       1.39670460      -1.44536283      -1.34209619       0.00000000
Si      -1.38636045       1.42335504      -1.55127540       0.00000000
Si       2.69733078       2.70282051       0.01541919       0.00000000
Si      -2.70904329      -2.70682785       0.00444458       0.00000000
Si      -2.71182888       2.70581787       0.00755197       0.00000000
Si      -2.70686043      -0.00566892       2.75299152       0.00000000
Si       0.00957852       2.70769455       2.75285296       0.00000000
Si       2.73724128      -2.73696435       0.04320213       0.00000000
