10
Lattice="16.28999089631971 0.0 0.0 0.0 16.28999089631971 0.0 0.0 0.0 34.642051614445585" Properties=species:S:1:pos:R:3:initial_magmoms:R:1 pbc="T T T"
Si      -1.35612621      -1.35076680       1.36157196       0.00000000
Si       1.35741312      -1.35749457      -1.35807311       0.00000000
Si      -1.35809730       1.35824621      -1.35821168       0.00000000
Si       1.35811359       1.35192732       1.37099460       0.00000000
Si      -2.72495862       0.10221439       2.61114610       0.00000000
Si       2.71498914       2.71419812       0.00530024       0.00000000
Si       0.00035838      -2.71482624      -2.71579980       0.00000000
Si      -2.71479366       0.00079193      -2.71593836       0.00000000
Si       2.71539639       0.00045976      -2.71600765       0.00000000
Si       0.00047241       2.71540358      -2.71607693       0.00000000
