10
Lattice="16.28999089631971 0.0 0.0 0.0 16.28999089631971 0.0 0.0 0.0 34.642051614445585" Properties=species:S:1:pos:R:3:initial_magmoms:R:1 pbc="T T T"
Si      -0.94957668      -0.64237986       2.05635333       0.00000000
Si       0.83465073       2.16610966      -0.42433073       0.00000000
Si       1.93394880      -1.37845980      -0.13551978       0.00000000
Si      -1.53497412      -0.50876928      -1.78046388       0.00000000
Si      -1.03627206      -2.82201444      -1.95298139       0.00000000
Si       2.96346051       1.76270573      -1.43878913       0.00000000
Si      -2.35023975       1.18416897       2.65701220       0.00000000
Si       1.36111095      -3.02493897      -1.72874327       0.00000000
Si      -0.99292437       1.14639246      -3.43005002       0.00000000
Si      -0.65189322       3.04139906      -2.13419407       0.00000000
