10
Lattice="16.28999089631971 0.0 0.0 0.0 16.28999089631971 0.0 0.0 0.0 34.642051614445585" Properties=species:S:1:pos:R:3:initial_magmoms:R:1 pbc="T T T"
Si       2.08373535       0.76554855       0.61164041       0.00000000
Si      -0.80071866       1.73784978      -1.32772665       0.00000000
Si       0.42666768      -1.96882569      -1.18340779       0.00000000
Si      -1.30326516      -0.12971727       1.94667654       0.00000000
Si      -0.08145000      -1.76528214       3.14577718       0.00000000
Si       1.55255103       3.05876387       1.13819988       0.00000000
Si      -3.40578288      -0.82451835       0.99814199       0.00000000
Si      -2.30954733       2.94628251       0.01735568       0.00000000
Si       1.63839933      -1.28003562      -3.14650466       0.00000000
Si       1.52505351      -3.49169634       0.34801425       0.00000000
