10
Lattice="16.28999089631971 0.0 0.0 0.0 16.28999089631971 0.0 0.0 0.0 34.642051614445585" Properties=species:S:1:pos:R:3:initial_magmoms:R:1 pbc="T T T"
Si      -1.43099505       1.28163204      -1.45680301       0.00000000
Si       2.25702837       0.50391486      -0.70867285       0.00000000
Si      -0.64938456       0.11779299       2.66168888       0.00000000
Si      -0.31513005      -2.28073032      -1.80467869       0.00000000
Si      -2.51882496      -1.77730416       1.18832696       0.00000000
Si      -1.53694521      -0.64516545      -3.00377933       0.00000000
Si      -3.35342682       1.67396040       0.14362603       0.00000000
Si      -1.49071419      -3.44730609      -0.14663989       0.00000000
Si       2.77799886      -0.90868878      -2.51487578       0.00000000
Si       2.40678234       2.65849609      -1.65547529       0.00000000
