10
Lattice="16.28999089631971 0.0 0.0 0.0 16.28999089631971 0.0 0.0 0.0 34.642051614445585" Properties=species:S:1:pos:R:3:initial_magmoms:R:1 pbc="T T T"
Si      -1.27715229      -1.49303228       1.26595984       0.00000000
Si       1.56542013       1.40078590       1.08277257       0.00000000
Si       1.27752696      -1.43489327      -1.39250733       0.00000000
Si      -1.44072018       1.27299736      -1.39129485       0.00000000
Si      -0.08384463       2.63526816      -2.75698922       0.00000000
Si       2.62957994      -0.07583486      -2.76291301       0.00000000
Si      -2.76578136       2.62955037       0.04978066       0.00000000
Si      -1.13891535      -1.01120666       3.54197855       0.00000000
Si       2.56753206      -2.88717935       0.06398391       0.00000000
Si      -0.08164548      -2.79520601      -2.75941416       0.00000000
