10
Lattice="16.28999089631971 0.0 0.0 0.0 16.28999089631971 0.0 0.0 0.0 34.642051614445585" Properties=species:S:1:pos:R:3:initial_magmoms:R:1 pbc="T T T"
Si      -1.35828301       1.29935556      -1.32471972       0.00000000
Si       1.26521172      -1.24753707      -1.49204093       0.00000000
Si       1.35594702       1.36080144       1.32487908       0.00000000
Si      -1.35526610      -1.35565380       1.33232712       0.00000000
Si       0.38165841       2.29089528      -2.50715511       0.00000000
Si       2.03129784       0.56659878      -2.73888860       0.00000000
Si      -2.25160380      -0.43103340      -2.62431320       0.00000000
Si      -0.45937800      -2.14607718      -2.89512937       0.00000000
Si      -2.71105484       0.00228060       2.68423394       0.00000000
Si       0.00011403      -2.71080261       2.68475357       0.00000000
