10
Lattice="16.28999089631971 0.0 0.0 0.0 16.28999089631971 0.0 0.0 0.0 34.642051614445585" Properties=species:S:1:pos:R:3:initial_magmoms:R:1 pbc="T T T"
Si      -1.35694071       1.35540945       1.36257658       0.00000000
Si       1.36234829      -1.36184400       1.36264586       0.00000000
Si       1.35361809       1.36018242      -1.37323594       0.00000000
Si      -1.37774304      -1.34941473      -1.36983409       0.00000000
Si       2.71512013      -0.06476904      -2.64630780       0.00000000
Si       0.03275919      -2.71816569      -2.67758613       0.00000000
Si      -2.71122615       2.71094922       0.00772518       0.00000000
Si       2.71763205       2.71230129       0.00356813       0.00000000
Si       0.00197109       2.71191033       2.72006077       0.00000000
Si      -2.71409319      -2.71896390       0.00543881       0.00000000
