10
Lattice="16.28999089631971 0.0 0.0 0.0 16.28999089631971 0.0 0.0 0.0 34.642051614445585" Properties=species:S:1:pos:R:3:initial_magmoms:R:1 pbc="T T T"
Si      -1.66057002      -0.57671487       1.52044050       0.00000000
Si       1.25390646       1.33631757       1.47363906       0.00000000
Si      -1.39637880       1.51949862      -1.19806138       0.00000000
Si       1.26164421      -1.96877682      -0.67032407       0.00000000
Si       2.73303424       2.14568622      -0.21148984       0.00000000
Si      -0.38467206      -1.46121300       3.22898744       0.00000000
Si       1.70691507      -0.24651657       3.17795966       0.00000000
Si      -2.42303976       1.61168373       2.17205785       0.00000000
Si      -0.29594043       2.70630657       2.64405607       0.00000000
Si      -3.29035194       0.33202278      -1.89509449       0.00000000
