10
Lattice="16.28999089631971 0.0 0.0 0.0 16.28999089631971 0.0 0.0 0.0 34.642051614445585" Properties=species:S:1:pos:R:3:initial_magmoms:R:1 pbc="T T T"
Si      -1.73994142      -0.99153972       1.18243538       0.00000000
Si       0.98968266       1.89682389       1.08136714       0.00000000
Si       1.64963943      -1.72429650      -0.23173349       0.00000000
Si      -1.12342356      -0.11471418      -2.15811480       0.00000000
Si       0.82345950      -1.81714950      -2.49251471       0.00000000
Si      -0.38165841      -2.29089528       2.50715511       0.00000000
Si       2.33785935       0.45097236       2.46614582       0.00000000
Si      -1.10203479       2.10843099      -2.90080616       0.00000000
Si       0.88355331      -3.53843235       1.01511418       0.00000000
Si      -2.63326221      -2.72192868      -0.11715810       0.00000000
