10
Lattice="16.28999089631971 0.0 0.0 0.0 16.28999089631971 0.0 0.0 0.0 34.642051614445585" Properties=species:S:1:pos:R:3:initial_magmoms:R:1 pbc="T T T"
Si       1.87392734      -1.15002513      -0.77501241       0.00000000
Si       0.84606743       0.98938944       1.96143406       0.00000000
Si      -0.45300861       1.58283414      -1.70432061       0.00000000
Si      -2.09158713      -1.21469643       0.05102777       0.00000000
Si       0.76782005      -2.77650018      -2.03639950       0.00000000
Si      -2.00285550       2.95282314      -0.53390360       0.00000000
Si      -1.70691507       0.24651657      -3.17795966       0.00000000
Si       2.43635588       2.51685387       1.14651398       0.00000000
Si       2.13792308      -0.76926267       2.91090394       0.00000000
Si      -3.36748509      -0.33019830      -1.65751917       0.00000000
