10
Lattice="16.28999089631971 0.0 0.0 0.0 16.28999089631971 0.0 0.0 0.0 34.642051614445585" Properties=species:S:1:pos:R:3:initial_magmoms:R:1 pbc="T T T"
Si      -1.34053668       1.29160152      -1.38529831       0.00000000
Si       1.34483724       1.37205783       1.34942991       0.00000000
Si      -1.36907676      -1.34273583       1.35473015       0.00000000
Si       1.31070969      -1.32936174      -1.49964486       0.00000000
Si      -2.04201666      -0.57868596      -2.86070554       0.00000000
Si       2.14487172       0.49304943      -2.83087872       0.00000000
Si       0.32498550       2.32254675      -2.80981634       0.00000000
Si      -0.34855713      -2.46847257      -2.83257618       0.00000000
Si       2.69576748      -2.69350263      -0.02623098       0.00000000
Si      -0.01479132      -2.69827560       2.70958154       0.00000000
