10
Lattice="16.28999089631971 0.0 0.0 0.0 16.28999089631971 0.0 0.0 0.0 34.642051614445585" Properties=species:S:1:pos:R:3:initial_magmoms:R:1 pbc="T T T"
Si       1.35578875      -1.35793440      -1.35190682       0.00000000
Si       1.35497099       1.35848826       1.35772669       0.00000000
Si      -1.35949754      -1.35702216       1.35748419       0.00000000
Si      -1.36234829       1.36184400      -1.36264586       0.00000000
Si       2.71105484      -0.00228060      -2.68423394       0.00000000
Si       0.00023661      -2.70980892      -2.69551686       0.00000000
Si       2.71116887      -2.71308321       0.00051963       0.00000000
Si       2.71147838       2.71451673       0.00034642       0.00000000
Si       2.71287932       0.00092853       2.71444876       0.00000000
Si      -0.00311394      -2.71381626       2.71431019       0.00000000
