10
Lattice="16.28999089631971 0.0 0.0 0.0 16.28999089631971 0.0 0.0 0.0 34.642051614445585" Properties=species:S:1:pos:R:3:initial_magmoms:R:1 pbc="T T T"
Si      -1.35653346       1.35666378      -1.35672207       0.00000000
Si      -1.35635427      -1.35723393       1.35710313       0.00000000
Si       1.35790182       1.35659862       1.35717241       0.00000000
Si       1.35749457      -1.35769005      -1.35696456       0.00000000
Si      -2.71337643      -0.00166158      -2.71396377       0.00000000
Si      -0.00092853       2.71371852      -2.71451804       0.00000000
Si      -0.00141723      -2.71419093      -2.71444876       0.00000000
Si       2.71460667      -0.00052128      -2.71424090       0.00000000
Si       2.71444753       2.71472850       0.00038106       0.00000000
Si      -2.71485882       2.71451673       0.00045035       0.00000000
