10
Lattice="16.28999089631971 0.0 0.0 0.0 16.28999089631971 0.0 0.0 0.0 34.642051614445585" Properties=species:S:1:pos:R:3:initial_magmoms:R:1 pbc="T T T"
Si      -1.35638360       1.35679410      -1.35682599       0.00000000
Si       1.35793832      -1.35724696      -1.35682599       0.00000000
Si      -1.35635102      -1.35974911       1.35779597       0.00000000
Si       1.35776728       1.35752715       1.35876595       0.00000000
Si      -0.00156132      -2.71229219       2.71569587       0.00000000
Si       2.71428282       0.00073305      -2.71379056       0.00000000
Si       0.00311394       2.71381626      -2.71431019       0.00000000
Si       0.00086351      -2.71428893      -2.71389448       0.00000000
Si      -0.00381830       2.71422351       2.71420626       0.00000000
Si      -2.71448090      -0.00068418      -2.71413698       0.00000000
