10
Lattice="16.28999089631971 0.0 0.0 0.0 16.28999089631971 0.0 0.0 0.0 34.642051614445585" Properties=species:S:1:pos:R:3:initial_magmoms:R:1 pbc="T T T"
Si      -1.35705474      -1.35733167      -1.35772669       0.00000000
Si      -1.35741312       1.35749457       1.35807311       0.00000000
Si       1.35798327       1.35795433      -1.35793454       0.00000000
Si       1.35977517      -1.35878148       1.36094840       0.00000000
Si      -2.71503801      -2.71415835      -0.00142032       0.00000000
Si       2.71621089       2.71313275      -0.00045035       0.00000000
Si       0.00127062      -2.71518462      -2.71489910       0.00000000
Si      -2.71516833       0.00060273      -2.71521088       0.00000000
Si       2.71570590      -2.71524978      -0.00100462       0.00000000
Si       0.00034209       2.71524068      -2.71573051       0.00000000
