10
Lattice="16.28999089631971 0.0 0.0 0.0 16.28999089631971 0.0 0.0 0.0 34.642051614445585" Properties=species:S:1:pos:R:3:initial_magmoms:R:1 pbc="T T T"
Si      -1.52179551      -0.69387255       1.60503643       0.00000000
Si      -1.12806621       0.96708843      -1.83218449       0.00000000
Si       1.47683511       1.40007663       1.28889289       0.00000000
Si       1.02540663      -1.71186723      -1.43532493       0.00000000
Si       0.86192019       2.15440137      -2.27154988       0.00000000
Si       2.38551642       2.55684582      -0.51637471       0.00000000
Si       2.15985430      -3.03634197       0.08009247       0.00000000
Si      -3.01166262      -2.13548868       0.55434242       0.00000000
Si      -2.69436600       1.26281709       2.26618036       0.00000000
Si      -0.76802463      -2.68004709      -2.64963344       0.00000000
