10
Lattice="16.28999089631971 0.0 0.0 0.0 16.28999089631971 0.0 0.0 0.0 34.642051614445585" Properties=species:S:1:pos:R:3:initial_magmoms:R:1 pbc="T T T"
Si      -1.61912241      -0.59658867       1.63718427       0.00000000
Si       1.12847020       1.73739366       1.19574036       0.00000000
Si      -1.04217948       0.60383772      -2.12411322       0.00000000
Si       1.77000298      -1.62517185      -0.50442320       0.00000000
Si      -2.85963849      -2.26735623       0.51973499       0.00000000
Si       0.87410511       1.75643667      -3.14775178       0.00000000
Si       3.06465073       2.21177475      -0.09796778       0.00000000
Si      -0.40603151      -1.65082860       3.44906851       0.00000000
Si       0.73100886      -3.54112020      -1.37861586       0.00000000
Si       2.84147773      -2.09227131       1.60139901       0.00000000
