10
Lattice="16.28999089631971 0.0 0.0 0.0 16.28999089631971 0.0 0.0 0.0 34.642051614445585" Properties=species:S:1:pos:R:3:initial_magmoms:R:1 pbc="T T T"
Si      -1.27620258       1.78048071       0.90027814       0.00000000
Si       1.93618053       0.47438109      -1.29370814       0.00000000
Si       0.94643271      -0.47262177       2.13887075       0.00000000
Si      -1.12847020      -1.73739366      -1.19574036       0.00000000
Si       2.66743863      -1.92329514       1.47810788       0.00000000
Si      -2.74759262      -2.33398233       0.44144391       0.00000000
Si       1.54776177       2.83366179      -1.66451687       0.00000000
Si       0.34409367       3.16962675       1.84829305       0.00000000
Si       0.64153278      -3.36256551      -1.70016356       0.00000000
Si       3.79249119      -0.66880224      -0.18980391       0.00000000
