10
Lattice="16.28999089631971 0.0 0.0 0.0 16.28999089631971 0.0 0.0 0.0 34.642051614445585" Properties=species:S:1:pos:R:3:initial_magmoms:R:1 pbc="T T T"
Si      -1.37482713      -1.28912544       1.37584449       0.00000000
Si       1.72100592      -1.45067337      -0.66076286       0.00000000
Si      -0.94643271       0.47262177      -2.13887075       0.00000000
Si       0.31457619       2.08077057       1.18846553       0.00000000
Si      -2.22263529       2.25310248      -1.23859261       0.00000000
Si       2.84605848      -0.19618047      -2.32867465       0.00000000
Si       0.98974782       0.94700286      -3.43257889       0.00000000
Si       0.01412343      -1.84169853       3.20903360       0.00000000
Si      -0.60233904       3.64224852      -0.29057769       0.00000000
Si       3.18373389      -1.77945444       1.16127150       0.00000000
