10
Lattice="16.28999089631971 0.0 0.0 0.0 16.28999089631971 0.0 0.0 0.0 34.642051614445585" Properties=species:S:1:pos:R:3:initial_magmoms:R:1 pbc="T T T"
Si      -1.00858069      -1.68225201       1.29304994       0.00000000
Si       1.12495482      -0.93333555      -1.85272724       0.00000000
Si      -1.29185564       1.75865211      -0.94946988       0.00000000
Si       0.30270078       1.10731275       2.99605415       0.00000000
Si      -1.70534213      -0.24487128       3.02193178       0.00000000
Si       2.24958384      -0.59512257       2.66165424       0.00000000
Si       1.07054622      -2.67437817       2.30265846       0.00000000
Si      -2.13792308       0.76926267      -2.91090394       0.00000000
Si      -0.26399574      -0.38076246      -3.68591635       0.00000000
Si       0.29843280       3.28611654      -1.76438996       0.00000000
