10
Lattice="16.28999089631971 0.0 0.0 0.0 16.28999089631971 0.0 0.0 0.0 34.642051614445585" Properties=species:S:1:pos:R:3:initial_magmoms:R:1 pbc="T T T"
Si      -1.55905630      -1.39916439      -1.01345379       0.00000000
Si       1.00858069       1.68225201      -1.29304994       0.00000000
Si      -0.69676144       1.43738073       1.72888184       0.00000000
Si       2.07912691      -0.99212616       1.00960852       0.00000000
Si       1.31128147       2.78956476       1.70300421       0.00000000
Si      -1.62952684      -3.22004593       0.52683662       0.00000000
Si      -0.35957894      -2.21063445      -2.89375611       0.00000000
Si       3.25816453       1.08712944       1.36860430       0.00000000
Si      -0.19855718       0.18235026       3.74396091       0.00000000
Si       3.10182940      -2.14449705      -0.83009330       0.00000000
