10
Lattice="16.28999089631971 0.0 0.0 0.0 16.28999089631971 0.0 0.0 0.0 34.642051614445585" Properties=species:S:1:pos:R:3:initial_magmoms:R:1 pbc="T T T"
Si       0.67595355      -2.24808516      -0.07593542       0.00000000
Si       1.89387214       0.49091544      -1.33992066       0.00000000
Si       0.23200381       1.28941866       2.00754266       0.00000000
Si      -1.92354993       0.30473703      -1.40854661       0.00000000
Si       1.27475440      -1.10366379      -3.09104271       0.00000000
Si      -2.69690139       2.27253645      -0.31018510       0.00000000
Si       2.47808041       0.56653362       2.60303986       0.00000000
Si      -1.24033104      -3.40068411       0.94770314       0.00000000
Si      -3.19482153      -1.93350897       0.84429655       0.00000000
Si      -0.09338405       3.62532321       1.40064821       0.00000000
