10
Lattice="16.28999089631971 0.0 0.0 0.0 16.28999089631971 0.0 0.0 0.0 34.642051614445585" Properties=species:S:1:pos:R:3:initial_magmoms:R:1 pbc="T T T"
Si       1.35969372      -1.35376416       1.36271515       0.00000000
Si      -1.35568038       1.36126449       1.36302692       0.00000000
Si      -1.36006745      -1.34141634      -1.38307429       0.00000000
Si       1.35917244       1.37696847      -1.38007082       0.00000000
Si      -2.71309040      -2.71303434       0.00239030       0.00000000
Si       2.71637379      -2.71003698       0.00135104       0.00000000
Si      -2.71152656       2.71932132       0.00180139       0.00000000
Si       0.00137488      -2.71191033       2.71967971       0.00000000
Si      -2.71343249       0.00245979       2.71981828       0.00000000
Si       2.71552671       2.71953309       0.00183603       0.00000000
