10
Lattice="16.28999089631971 0.0 0.0 0.0 16.28999089631971 0.0 0.0 0.0 34.31420841018396" Properties=species:S:1:pos:R:3:initial_magmoms:R:1 pbc="T T T"
Si       1.86427647       0.85726288       1.14039904       0.00000000
Si      -1.36399102       1.30692227      -1.39658906       0.00000000
Si      -1.24826197      -1.37130753       1.47338430       0.00000000
Si       1.33372746      -1.40879082      -1.40396662       0.00000000
Si       1.10389185       1.35334225       3.29028834       0.00000000
Si       0.59885298      -2.57482902       2.64902406       0.00000000
Si       3.44629611      -1.04995470       1.01951002       0.00000000
Si      -2.90081636       2.43088339       0.01382863       0.00000000
Si      -2.67141551      -2.68843548       0.01434335       0.00000000
Si       0.00353493       2.66076787      -2.75474619       0.00000000
