10
Lattice="16.28999089631971 0.0 0.0 0.0 16.28999089631971 0.0 0.0 0.0 34.31420841018396" Properties=species:S:1:pos:R:3:initial_magmoms:R:1 pbc="T T T"
Si       1.35707103      -1.35684499       1.35733359       0.00000000
Si       1.35628911       1.35809730      -1.35688750       0.00000000
Si      -1.35705474      -1.35804378      -1.35675024       0.00000000
Si      -1.35783666       1.35790182       1.35774536       0.00000000
Si      -0.00125433       2.71306692       2.71411815       0.00000000
Si       2.71322982       0.00078192       2.71459854       0.00000000
Si       2.71443528      -2.71437731      -0.00024020       0.00000000
Si       0.00004887      -2.71528955       2.71439266       0.00000000
Si      -0.00055386      -2.71260170      -2.71713780       0.00000000
Si       2.71427238       2.71554300      -0.00006863       0.00000000
