10
Lattice="16.28999089631971 0.0 0.0 0.0 16.28999089631971 0.0 0.0 0.0 34.31420841018396" Properties=species:S:1:pos:R:3:initial_magmoms:R:1 pbc="T T T"
Si       2.25489438       0.66539470      -0.06073618       0.00000000
Si      -0.57554199      -1.94887078      -1.19554200       0.00000000
Si      -0.16576704      -1.15103545       2.09697676       0.00000000
Si      -1.53982854       1.72526445      -0.66329402       0.00000000
Si      -2.18310435      -0.31019452       2.87937547       0.00000000
Si      -1.19850417      -1.14383527      -3.24801321       0.00000000
Si       1.50141672      -0.12022054       3.36773555       0.00000000
Si       2.84710104       0.12204973      -2.34548040       0.00000000
Si      -2.66771556      -2.57513983      -0.08588851       0.00000000
Si       3.23507997      -0.42176473       1.83656609       0.00000000
