10
Lattice="16.28999089631971 0.0 0.0 0.0 16.28999089631971 0.0 0.0 0.0 34.31420841018396" Properties=species:S:1:pos:R:3:initial_magmoms:R:1 pbc="T T T"
Si       0.64640349      -1.35286821      -1.78814871       0.00000000
Si       0.64369935       2.22856974      -0.32639693       0.00000000
Si       0.36471681      -1.07953830       2.05706932       0.00000000
Si      -2.24818290       0.76949073      -0.33875005       0.00000000
Si      -1.45290510      -2.35073334      -2.03078462       0.00000000
Si      -1.57283208       3.01255857      -0.69359348       0.00000000
Si      -1.26216549       0.15838767       3.23905720       0.00000000
Si       1.65636720       2.06301447      -2.44368772       0.00000000
Si      -3.11886711       0.43745166       1.85368889       0.00000000
Si       0.92434347       0.16185744      -3.62052847       0.00000000
