10
Lattice="16.28999089631971 0.0 0.0 0.0 16.28999089631971 0.0 0.0 0.0 34.31420841018396" Properties=species:S:1:pos:R:3:initial_magmoms:R:1 pbc="T T T"
Si       0.74484396       0.92273076       2.01067648       0.00000000
Si      -0.64369935      -2.22856974       0.32639693       0.00000000
Si       1.01266785      -0.16555527      -2.11729078       0.00000000
Si      -2.21653143       0.78398883      -0.36719655       0.00000000
Si      -2.89188225      -1.45907901      -0.01235312       0.00000000
Si       0.62534052       3.20109903       1.20422350       0.00000000
Si       1.04839182       3.24794907      -1.25147419       0.00000000
Si       3.21074271      -0.79136820      -1.63126407       0.00000000
Si      -0.98381826       0.17612748       3.61232737       0.00000000
Si       0.00270414      -3.58143795      -1.46175178       0.00000000
