10
Lattice="16.28999089631971 0.0 0.0 0.0 16.28999089631971 0.0 0.0 0.0 34.31420841018396" Properties=species:S:1:pos:R:3:initial_magmoms:R:1 pbc="T T T"
Si      -0.99048087      -0.04404816      -2.10397686       0.00000000
Si      -0.33249519       1.79413173       1.46600675       0.00000000
Si      -0.58396392      -1.63216026       1.63370038       0.00000000
Si       2.26514079       0.48285189      -0.57829768       0.00000000
Si       1.52236566       1.20534597       2.74874120       0.00000000
Si       3.22752141       0.11197746       1.54812069       0.00000000
Si       0.17089839       3.59100018       0.11982528       0.00000000
Si      -1.91252745      -2.29035771      -2.15085010       0.00000000
Si       2.15042661       2.88438885      -0.89120912       0.00000000
Si      -2.65906557       1.62795744      -2.08187850       0.00000000
