10
Lattice="16.28999089631971 0.0 0.0 0.0 16.28999089631971 0.0 0.0 0.0 34.31420841018396" Properties=species:S:1:pos:R:3:initial_magmoms:R:1 pbc="T T T"
Si       0.55910538      -0.87363270       2.13949209       0.00000000
Si      -1.53090162       1.80849951      -0.22455231       0.00000000
Si       2.00844297       0.13325220      -1.33142634       0.00000000
Si      -1.69789041      -1.61143938      -0.76959950       0.00000000
Si       0.42241599      -2.66084118       0.37807416       0.00000000
Si       0.88400943      -1.29718899      -3.06014282       0.00000000
Si      -0.27447021      -3.05828460      -1.96476404       0.00000000
Si      -1.15971768       3.05020476       1.62735224       0.00000000
Si      -3.21224139      -0.15467355      -1.88470895       0.00000000
Si       1.48030488       0.92631456       3.37645137       0.00000000
