10
Lattice="16.28999089631971 0.0 0.0 0.0 16.28999089631971 0.0 0.0 0.0 34.31420841018396" Properties=species:S:1:pos:R:3:initial_magmoms:R:1 pbc="T T T"
Si      -1.36756735      -0.26163043       1.88704232       0.00000000
Si       1.26127117       1.94975010       0.32879893       0.00000000
Si      -1.53642949       0.90214020      -1.56297875       0.00000000
Si       0.89960059      -2.15211167      -0.50294363       0.00000000
Si       2.13195538       2.28178917      -1.86364001       0.00000000
Si      -2.03387722       1.98990495       2.37152490       0.00000000
Si      -2.96375929      -1.89251423       1.16695825       0.00000000
Si      -0.26712994       3.38120127       1.58065058       0.00000000
Si      -0.71027528      -3.25680173      -1.76196696       0.00000000
Si       0.11572905      -0.76295355       3.69423543       0.00000000
