10
Lattice="16.28999089631971 0.0 0.0 0.0 16.28999089631971 0.0 0.0 0.0 34.31420841018396" Properties=species:S:1:pos:R:3:initial_magmoms:R:1 pbc="T T T"
Si       1.35721764      -1.35739683       1.35764241       0.00000000
Si       1.35773892       1.35728280      -1.35733359       0.00000000
Si      -1.35769005       1.35773892       1.35753947       0.00000000
Si      -1.35910728      -1.35720135      -1.35736790       0.00000000
Si      -2.71459818      -0.00136836      -2.71020632       0.00000000
Si       0.00029322       2.71451673       2.71428972       0.00000000
Si      -2.71529865       0.00118917       2.71418677       0.00000000
Si       2.71507059      -2.71472850       0.00037746       0.00000000
Si      -2.71492398      -2.71492398      -0.00003431       0.00000000
Si      -0.00083079      -2.71518462       2.71470149       0.00000000
