10
Lattice="16.28999089631971 0.0 0.0 0.0 16.28999089631971 0.0 0.0 0.0 34.31420841018396" Properties=species:S:1:pos:R:3:initial_magmoms:R:1 pbc="T T T"
Si      -0.83930967      -1.85220558      -1.17879666       0.00000000
Si       1.94732289       1.02665430      -0.92912634       0.00000000
Si      -0.29742282      -1.36278882       1.94698927       0.00000000
Si      -1.58201964       1.90721758       0.12088902       0.00000000
Si      -2.11256865      -0.35883612      -2.42347664       0.00000000
Si       0.64293372       2.36891365      -2.40995683       0.00000000
Si      -2.84744313      -1.52487432       1.62951404       0.00000000
Si      -3.44629611       1.04995470      -1.01951002       0.00000000
Si       0.07376112      -0.12108357       3.79889382       0.00000000
Si      -1.97876259      -3.32596188       0.28683263       0.00000000
