10
Lattice="16.28999089631971 0.0 0.0 0.0 16.28999089631971 0.0 0.0 0.0 34.31420841018396" Properties=species:S:1:pos:R:3:initial_magmoms:R:1 pbc="T T T"
Si      -0.37118394      -1.24170525      -1.85190455       0.00000000
Si       0.62296218      -0.80503551       2.05247121       0.00000000
Si      -2.13537465       0.93763611       0.20715499       0.00000000
Si       1.19850417       1.14383527       3.24801321       0.00000000
Si       1.15971768      -3.05020476      -1.62735224       0.00000000
Si      -1.46921139      -1.43130456       3.16212470       0.00000000
Si      -3.69996399      -0.86092650      -0.03242695       0.00000000
Si      -0.07376112       0.12108357      -3.79889382       0.00000000
Si       2.64002256      -2.12389020       1.74909912       0.00000000
Si      -2.41616538       2.52438052      -1.52811550       0.00000000
