10
Lattice="16.28999089631971 0.0 0.0 0.0 16.28999089631971 0.0 0.0 0.0 34.31420841018396" Properties=species:S:1:pos:R:3:initial_magmoms:R:1 pbc="T T T"
Si      -2.01733731       0.84084093       0.78239870       0.00000000
Si       1.66718376       1.03081491       1.27075879       0.00000000
Si       0.24765687      -2.35895490      -0.27578345       0.00000000
Si       0.16576704       1.15103545      -2.09697676       0.00000000
Si      -0.40977495      -0.79783533      -3.29251877       0.00000000
Si       3.40084701       0.72927072      -0.26041067       0.00000000
Si      -2.50194852      -1.42410438      -2.18286527       0.00000000
Si      -3.43192833       0.46938006      -1.07056959       0.00000000
Si       0.58202541       3.07233377       1.84229656       0.00000000
Si       2.42066142       1.81643015      -2.15771294       0.00000000
