10
Lattice="16.28999089631971 0.0 0.0 0.0 16.28999089631971 0.0 0.0 0.0 34.31420841018396" Properties=species:S:1:pos:R:3:initial_magmoms:R:1 pbc="T T T"
Si       2.29661307       0.17425413       0.20650302       0.00000000
Si      -0.93323781      -1.70253306      -1.32864689       0.00000000
Si      -0.91522107      -0.90331308       2.02711299       0.00000000
Si      -0.62147979       2.25127800      -0.55966505       0.00000000
Si      -3.00183975      -0.60170373      -1.59780769       0.00000000
Si      -2.80236870       1.73055186      -1.30678873       0.00000000
Si      -2.30055525       0.95259033       2.54216955       0.00000000
Si       1.04821263      -1.92122631       2.87412539       0.00000000
Si       3.21172011      -0.85087557      -1.61959723       0.00000000
Si      -0.98282457      -3.61382247       0.00476968       0.00000000
