10
Lattice="16.28999089631971 0.0 0.0 0.0 16.28999089631971 0.0 0.0 0.0 34.31420841018396" Properties=species:S:1:pos:R:3:initial_magmoms:R:1 pbc="T T T"
Si      -1.35250983      -1.35045729      -1.38574577       0.00000000
Si       1.36172997       1.36492281      -1.37967215       0.00000000
Si       1.38455226      -1.39823586       1.39861360       0.00000000
Si      -1.23198012       1.36508571       1.60521957       0.00000000
Si       0.73230066       2.11967109       2.88208629       0.00000000
Si       2.46604536       0.15128523       2.73594199       0.00000000
Si      -2.69392617      -2.69270605      -0.01640220       0.00000000
Si      -2.69786835       2.70741429       0.00240200       0.00000000
Si       0.00452862      -2.70751203      -2.74160384       0.00000000
Si      -2.70995553       0.00477297      -2.74208424       0.00000000
