10
Lattice="16.28999089631971 0.0 0.0 0.0 16.28999089631971 0.0 0.0 0.0 34.31420841018396" Properties=species:S:1:pos:R:3:initial_magmoms:R:1 pbc="T T T"
Si       0.36396421      -2.29936186      -0.08588851       0.00000000
Si       1.96549927       1.33608462      -0.07957469       0.00000000
Si      -1.48329639       0.50132312      -1.80719311       0.00000000
Si      -0.64130798      -0.07951312       2.31514662       0.00000000
Si       3.42596293      -0.46343095       0.36500044       0.00000000
Si      -2.73803364       0.87372555       2.19463505       0.00000000
Si       1.25813860      -2.60492968      -2.22019915       0.00000000
Si      -2.14960626       2.75285850      -1.32271053       0.00000000
Si      -0.11572905       0.76295355      -3.69423543       0.00000000
Si      -1.69218306      -3.38526955       0.13492354       0.00000000
