10
Lattice="16.28999089631971 0.0 0.0 0.0 16.28999089631971 0.0 0.0 0.0 34.31420841018396" Properties=species:S:1:pos:R:3:initial_magmoms:R:1 pbc="T T T"
Si      -0.75385233       1.58692293      -1.57752798       0.00000000
Si       2.29392522       0.29457207      -0.49896318       0.00000000
Si      -0.16716798      -2.26301657      -0.80545786       0.00000000
Si      -0.37155861       0.45519147       2.36376988       0.00000000
Si       0.81301761      -3.35017601       1.09184441       0.00000000
Si       1.71989820      -0.21673845       3.34711270       0.00000000
Si       0.52329996       3.54548592      -1.27075879       0.00000000
Si       2.47015044       0.67741965      -2.81352646       0.00000000
Si       0.04351059       0.87570153      -3.71695145       0.00000000
Si      -2.42206236      -2.92841127      -0.74472168       0.00000000
