10
Lattice="16.28999089631971 0.0 0.0 0.0 16.28999089631971 0.0 0.0 0.0 34.31420841018396" Properties=species:S:1:pos:R:3:initial_magmoms:R:1 pbc="T T T"
Si      -0.19217313       2.13719913       0.91207217       0.00000000
Si       0.75168576       0.30025728      -2.21488045       0.00000000
Si      -2.27787957      -0.23643306      -0.64675456       0.00000000
Si       2.08508742      -0.93098979       0.72118212       0.00000000
Si      -0.84879045       3.21453828      -1.08381488       0.00000000
Si       3.20632812       1.17784845       1.15361002       0.00000000
Si      -2.61605997       1.86460227      -1.72628016       0.00000000
Si      -2.15741502      -1.91462886      -2.25276336       0.00000000
Si       2.79360468      -2.09764701      -1.25054771       0.00000000
Si      -0.13927950      -1.61852553      -3.38190733       0.00000000
