10
Lattice="16.28999089631971 0.0 0.0 0.0 16.28999089631971 0.0 0.0 0.0 34.31420841018396" Properties=species:S:1:pos:R:3:initial_magmoms:R:1 pbc="T T T"
Si      -1.34219826      -1.35112518       1.37914371       0.00000000
Si       1.37158542       1.36493910       1.37409952       0.00000000
Si       1.38774510      -1.32703227      -1.42770864       0.00000000
Si      -1.38507354       1.36511829      -1.47842163       0.00000000
Si       2.13452757       0.56677797      -2.65545077       0.00000000
Si       0.44921304       2.47573791      -2.70773025       0.00000000
Si      -2.70822879      -2.69060301      -0.00795747       0.00000000
Si      -2.69127090       2.71955034       0.00919621       0.00000000
Si      -2.69759142       0.00576666       2.73894792       0.00000000
Si       2.73887028      -2.69873172       0.00373339       0.00000000
