10
Lattice="16.28999089631971 0.0 0.0 0.0 16.28999089631971 0.0 0.0 0.0 34.31420841018396" Properties=species:S:1:pos:R:3:initial_magmoms:R:1 pbc="T T T"
Si       1.49568264       0.09326025       1.78107998       0.00000000
Si      -1.27715229      -1.95856299      -0.30676919       0.00000000
Si       1.37417553      -0.42282324      -1.88460601       0.00000000
Si      -1.09395495       2.11193334      -0.06605489       0.00000000
Si      -0.68297454       1.69197714      -2.54333623       0.00000000
Si      -0.47978937      -2.66978439      -2.44619266       0.00000000
Si       3.10821345       1.63281186       1.02228947       0.00000000
Si      -0.50008671      -0.49570470      -3.62560697       0.00000000
Si       1.77062526      -3.25091385       0.77179561       0.00000000
Si       1.94685048      -2.86806627      -1.54276767       0.00000000
