10
Lattice="16.28999089631971 0.0 0.0 0.0 16.28999089631971 0.0 0.0 0.0 34.31420841018396" Properties=species:S:1:pos:R:3:initial_magmoms:R:1 pbc="T T T"
Si       1.45818306      -1.78013862       0.27791093       0.00000000
Si      -1.49568264      -0.09326025      -1.78107998       0.00000000
Si      -1.07611740       0.42798717       2.04945156       0.00000000
Si       1.61253081       1.53955161      -0.75879051       0.00000000
Si       0.27494262      -3.34417410      -1.00928438       0.00000000
Si      -1.51093008       2.69451261       1.75500117       0.00000000
Si       0.71487036       0.02463048       3.57650331       0.00000000
Si       1.34627076      -2.13029217       2.64442595       0.00000000
Si       3.04365618       1.69694559       1.16767885       0.00000000
Si      -0.12150711      -0.51608349      -3.66568599       0.00000000
