10
Lattice="16.28999089631971 0.0 0.0 0.0 16.28999089631971 0.0 0.0 0.0 34.31420841018396" Properties=species:S:1:pos:R:3:initial_magmoms:R:1 pbc="T T T"
Si       1.76726952       1.34993601       0.64246528       0.00000000
Si      -1.70515575       1.09336851       1.20062051       0.00000000
Si      -0.96238062       0.37087443      -2.12641837       0.00000000
Si       0.33818040      -2.10103533       1.07952560       0.00000000
Si      -3.22752141      -0.11197746      -1.54812069       0.00000000
Si       2.42388684       0.27259686       2.63835233       0.00000000
Si       3.42678069       0.76582548      -0.87744911       0.00000000
Si       2.61605997      -1.86460227       1.72628016       0.00000000
Si      -2.90647809      -0.74259594       2.14412451       0.00000000
Si       3.36774573      -1.56434499      -0.48860029       0.00000000
