10
Lattice="16.28999089631971 0.0 0.0 0.0 16.28999089631971 0.0 0.0 0.0 34.31420841018396" Properties=species:S:1:pos:R:3:initial_magmoms:R:1 pbc="T T T"
Si       1.35786924       1.35573525      -1.35760810       0.00000000
Si       1.35759231      -1.35767376       1.35716202       0.00000000
Si      -1.35785295       1.35733167       1.35726496       0.00000000
Si      -1.35814617      -1.35790182      -1.35723064       0.00000000
Si       2.71414206       0.00076563       2.71302009       0.00000000
Si       2.71456560       2.71494027      -0.00034314       0.00000000
Si       2.71476108      -2.71476108      -0.00061766       0.00000000
Si      -2.71507059       2.71472850      -0.00037746       0.00000000
Si      -0.00013032      -2.71603170       2.71411815       0.00000000
Si       0.00013032       2.71445157       2.71576523       0.00000000
