10
Lattice="16.28999089631971 0.0 0.0 0.0 16.28999089631971 0.0 0.0 0.0 34.31420841018396" Properties=species:S:1:pos:R:3:initial_magmoms:R:1 pbc="T T T"
Si       1.35288450      -1.35213516      -1.35791693       0.00000000
Si       1.34452773       1.34917038       1.37023574       0.00000000
Si      -1.36112724       1.36155078      -1.35517179       0.00000000
Si      -1.34524449      -1.36190916       1.38440751       0.00000000
Si      -0.18225252       2.50393590       2.83075220       0.00000000
Si       2.70842427      -2.71132389       0.00133825       0.00000000
Si      -0.00366525      -2.71057455      -2.71377500       0.00000000
Si       2.71088406       0.00425169      -2.71477012       0.00000000
Si      -2.72002275      -2.71023246       0.00813247       0.00000000
Si       2.71114470       2.71987614       0.00353437       0.00000000
