10
Lattice="16.28999089631971 0.0 0.0 0.0 16.28999089631971 0.0 0.0 0.0 34.31420841018396" Properties=species:S:1:pos:R:3:initial_magmoms:R:1 pbc="T T T"
Si       0.71617356      -2.18805651      -0.28127372       0.00000000
Si      -0.59973264       0.67385214      -2.26868516       0.00000000
Si       1.99821285       1.04811489       0.95946012       0.00000000
Si      -2.09416095      -0.47421819       1.41748643       0.00000000
Si      -2.06347059       2.39638932      -1.59684689       0.00000000
Si       0.81722043       1.72594179       3.16212470       0.00000000
Si      -2.75625171      -2.44462401       0.27688150       0.00000000
Si      -0.77814072       3.64449654      -0.18824785       0.00000000
Si       2.79226890       2.26134522      -1.22566990       0.00000000
Si      -1.05109596      -3.53799252      -0.92373901       0.00000000
