10
Lattice="16.28999089631971 0.0 0.0 0.0 16.28999089631971 0.0 0.0 0.0 34.31420841018396" Properties=species:S:1:pos:R:3:initial_magmoms:R:1 pbc="T T T"
Si      -1.34452773      -1.34917038      -1.37023574       0.00000000
Si       1.36661697       1.37070576      -1.36670137       0.00000000
Si       1.45349154      -1.26641718       1.38241729       0.00000000
Si      -1.52678025       1.15476552       1.46051647       0.00000000
Si       0.39843711       1.96641477       2.61004309       0.00000000
Si       2.34183411       0.53799354       2.69260312       0.00000000
Si      -2.68977222      -2.71107954       0.01417178       0.00000000
Si       0.00835677      -2.70130554      -2.72815266       0.00000000
Si      -2.70565497       0.01238040      -2.72540753       0.00000000
Si      -2.71135647       2.72445363       0.01997088       0.00000000
