10
Lattice="16.28999089631971 0.0 0.0 0.0 16.28999089631971 0.0 0.0 0.0 34.31420841018396" Properties=species:S:1:pos:R:3:initial_magmoms:R:1 pbc="T T T"
Si      -1.73366325       0.30154419       1.53116946       0.00000000
Si       1.73527596       1.24694641       1.01021086       0.00000000
Si       0.37704834      -2.36511252      -0.02817198       0.00000000
Si      -0.98018559       1.08715943      -1.89730227       0.00000000
Si      -3.40084701      -0.72927072       0.26041067       0.00000000
Si       2.81041596       1.86407677      -0.95012665       0.00000000
Si      -0.81301761       3.35017601      -1.09184441       0.00000000
Si      -0.55258938       0.12052971       3.57550820       0.00000000
Si       2.52139878      -2.51071254      -0.94460206       0.00000000
Si      -3.23507997       0.42176473      -1.83656609       0.00000000
