10
Lattice="16.28999089631971 0.0 0.0 0.0 16.28999089631971 0.0 0.0 0.0 34.31420841018396" Properties=species:S:1:pos:R:3:initial_magmoms:R:1 pbc="T T T"
Si       1.25538885      -1.89314235       0.54333148       0.00000000
Si      -0.17404236       0.48894435      -2.28223928       0.00000000
Si       1.56774960       1.59301362       0.71878013       0.00000000
Si      -0.89182863       0.88202205       2.97442588       0.00000000
Si      -0.02994102      -3.14124957      -0.86526756       0.00000000
Si      -0.80273862      -1.78284276      -2.61796968       0.00000000
Si      -0.40363362       2.87458131      -2.02388746       0.00000000
Si       3.27617964      -1.47374001      -0.50455640       0.00000000
Si       1.97327286       1.27426896      -2.84296807       0.00000000
Si      -1.76648760       2.76618276       1.70946619       0.00000000
