10
Lattice="16.28999089631971 0.0 0.0 0.0 16.28999089631971 0.0 0.0 0.0 34.31420841018396" Properties=species:S:1:pos:R:3:initial_magmoms:R:1 pbc="T T T"
Si       0.02322954      -0.81270810       2.16502188       0.00000000
Si      -1.27967724       1.93530087      -0.17338979       0.00000000
Si      -0.83799018      -1.46961864      -1.62543065       0.00000000
Si       2.23086663       0.85804317       0.18131638       0.00000000
Si       0.43464978       1.26317547       3.22941490       0.00000000
Si       1.63149237       2.63116473       1.67724513       0.00000000
Si      -3.42699246       1.14997626       0.38733900       0.00000000
Si      -0.30439494      -3.56926932      -0.70752506       0.00000000
Si       1.57284837      -2.61526176       2.17548771       0.00000000
Si       2.79769347       1.90985589      -1.76876118       0.00000000
