10
Lattice="16.28999089631971 0.0 0.0 0.0 16.28999089631971 0.0 0.0 0.0 34.31420841018396" Properties=species:S:1:pos:R:3:initial_magmoms:R:1 pbc="T T T"
Si       1.35628911       1.35738054       1.35681887       0.00000000
Si      -1.35754018       1.35697329      -1.35685319       0.00000000
Si       1.35723393      -1.35764118      -1.35777967       0.00000000
Si      -1.35872935      -1.35713619       1.35788261       0.00000000
Si       0.00527796       2.71116099       2.71501032       0.00000000
Si      -2.71261799       0.00242721       2.71511326       0.00000000
Si       0.00017919       2.71476108      -2.71356912       0.00000000
Si      -0.00221544      -2.71524978      -2.71411815       0.00000000
Si       2.71476108       2.71464705       0.00020589       0.00000000
Si       2.71471221      -2.71487511       0.00058334       0.00000000
