10
Lattice="16.28999089631971 0.0 0.0 0.0 16.28999089631971 0.0 0.0 0.0 34.31420841018396" Properties=species:S:1:pos:R:3:initial_magmoms:R:1 pbc="T T T"
Si       1.35659862       1.33509582       1.36773080       0.00000000
Si      -1.36018242       1.35350352      -1.35922087       0.00000000
Si       1.35663120      -1.35982730      -1.36001010       0.00000000
Si      -1.35413883      -1.38075995       1.37435344       0.00000000
Si       2.52592740      -0.23252346       2.76963857       0.00000000
Si      -0.04220739       2.63010195       2.73981950       0.00000000
Si      -0.00175932       2.71288773      -2.71710348       0.00000000
Si       2.71335129      -0.00239463      -2.71717211       0.00000000
Si       2.71603170       2.71516833      -0.00216180       0.00000000
Si      -2.71836117       2.71318095       0.00209317       0.00000000
