10
Lattice="16.28999089631971 0.0 0.0 0.0 16.28999089631971 0.0 0.0 0.0 34.31420841018396" Properties=species:S:1:pos:R:3:initial_magmoms:R:1 pbc="T T T"
Si       1.35754018      -1.35697329       1.35685319       0.00000000
Si       1.35771937       1.35778779      -1.35671593       0.00000000
Si      -1.35748827       1.35795069       1.35723064       0.00000000
Si      -1.35919927      -1.35711990      -1.35723064       0.00000000
Si       2.71382929       0.00040725       2.71367206       0.00000000
Si      -2.71151352       0.00138465      -2.71614268       0.00000000
Si      -0.00118917      -2.71410948       2.71473580       0.00000000
Si       2.71094596       0.00017919      -2.71802997       0.00000000
Si       2.71477411      -2.71461447      -0.00092648       0.00000000
Si      -2.71578150      -0.00022806       2.71377500       0.00000000
