10
Lattice="16.28999089631971 0.0 0.0 0.0 16.28999089631971 0.0 0.0 0.0 34.31420841018396" Properties=species:S:1:pos:R:3:initial_magmoms:R:1 pbc="T T T"
Si       0.44308800      -0.10176363      -2.23996415       0.00000000
Si       1.03848750       1.93427460       0.91361631       0.00000000
Si      -2.44231083       0.04693149       0.30656331       0.00000000
Si       1.44360351      -1.54984689       1.27171959       0.00000000
Si      -2.38500261      -2.32854473      -0.36403964       0.00000000
Si      -1.58487039      -1.09095759      -2.76531497       0.00000000
Si       0.83316834       1.29842703       3.20989011       0.00000000
Si       3.02261017       2.10090501      -0.38160852       0.00000000
Si      -2.61853605      -0.33591609       2.62112659       0.00000000
Si       0.85266747      -1.09092501       3.46213399       0.00000000
