10
Lattice="16.28999089631971 0.0 0.0 0.0 16.28999089631971 0.0 0.0 0.0 34.31420841018396" Properties=species:S:1:pos:R:3:initial_magmoms:R:1 pbc="T T T"
Si      -0.98969895      -1.60227367       1.45554575       0.00000000
Si       1.71218067       1.12062331       1.34152987       0.00000000
Si      -1.85093496       1.70510851       0.18785863       0.00000000
Si       0.36798965      -1.26782368      -2.17250238       0.00000000
Si      -1.63295847      -2.50702027      -2.18039465       0.00000000
Si      -2.37659697      -0.25479316       2.87626801       0.00000000
Si      -2.22086457      -3.04770166       0.09161899       0.00000000
Si       0.35755770       2.45083213       2.87637781       0.00000000
Si       2.36772611       1.82365084      -2.37687792       0.00000000
Si       0.67969115       0.50690082      -3.80623707       0.00000000
