10
Lattice="16.28999089631971 0.0 0.0 0.0 16.28999089631971 0.0 0.0 0.0 34.31420841018396" Properties=species:S:1:pos:R:3:initial_magmoms:R:1 pbc="T T T"
Si       2.09672567      -0.95323867       0.12051157       0.00000000
Si       0.24273729       2.01205935      -1.14451675       0.00000000
Si      -1.50765579      -1.28197739      -1.27590592       0.00000000
Si      -0.70851726       1.16665722       1.97172983       0.00000000
Si      -2.04191892       2.39790429      -0.96433274       0.00000000
Si       2.73803364      -0.87372555      -2.19463505       0.00000000
Si      -2.93288418       0.47912148      -2.13135962       0.00000000
Si       1.78502417      -2.72796317       1.75424626       0.00000000
Si      -2.79360468       2.09764701       1.25054771       0.00000000
Si      -2.70449838      -2.64996665       0.27626385       0.00000000
