10
Lattice="16.28999089631971 0.0 0.0 0.0 16.28999089631971 0.0 0.0 0.0 34.31420841018396" Properties=species:S:1:pos:R:3:initial_magmoms:R:1 pbc="T T T"
Si      -1.35708732      -1.35659862      -1.35675024       0.00000000
Si       1.35829323       1.35817875      -1.35654436       0.00000000
Si       1.36070370      -1.35431802       1.35819144       0.00000000
Si      -1.35961227       1.35751086       1.35867184       0.00000000
Si       2.71459233      -2.71388142       0.00096080       0.00000000
Si      -2.71453302       0.00117288      -2.71422109       0.00000000
Si       0.00140094      -2.71503801      -2.71387795       0.00000000
Si       2.71578150       0.00022806      -2.71377500       0.00000000
Si       0.00066789       2.71523349      -2.71459854       0.00000000
Si       2.71481714       2.71503801       0.00140688       0.00000000
