10
Lattice="16.28999089631971 0.0 0.0 0.0 16.28999089631971 0.0 0.0 0.0 34.31420841018396" Properties=species:S:1:pos:R:3:initial_magmoms:R:1 pbc="T T T"
Si      -1.52438562      -1.18441332      -1.34590695       0.00000000
Si       1.23675847       1.51392744      -1.31687711       0.00000000
Si      -0.94825719       1.66276917       1.42225611       0.00000000
Si       1.47133953      -1.17670815       1.49510521       0.00000000
Si      -0.12557961      -2.47941945      -2.71799565       0.00000000
Si       2.52238662      -2.71529865       0.06533429       0.00000000
Si       0.15074766      -3.04798932       2.12116829       0.00000000
Si       2.59005040       0.23758965      -2.73113800       0.00000000
Si       2.87550170       2.43835236       0.41739826       0.00000000
Si       0.95544108       2.94337494       2.26892536       0.00000000
