10
Lattice="16.28999089631971 0.0 0.0 0.0 16.28999089631971 0.0 0.0 0.0 34.31420841018396" Properties=species:S:1:pos:R:3:initial_magmoms:R:1 pbc="T T T"
Si      -1.35381303      -1.33146315      -1.37345098       0.00000000
Si       1.35532800      -1.35633798       1.35771104       0.00000000
Si      -1.35804843       1.35726651       1.35719633       0.00000000
Si       1.34856765       1.36537893      -1.38007019       0.00000000
Si       2.59895547      -0.15877863      -2.75256037       0.00000000
Si      -0.00115659      -2.71322982       2.71418677       0.00000000
Si       2.71404432       0.00083079       2.71380932       0.00000000
Si      -2.71432125       2.71526607      -0.00288240       0.00000000
Si      -2.71810053      -2.71191033      -0.00741187       0.00000000
Si       2.71764441      -2.71278999      -0.00150983       0.00000000
