10
Lattice="16.28999089631971 0.0 0.0 0.0 16.28999089631971 0.0 0.0 0.0 34.31420841018396" Properties=species:S:1:pos:R:3:initial_magmoms:R:1 pbc="T T T"
Si      -1.64341665      -0.24099426       1.62567085       0.00000000
Si       1.65600786       1.09965645       1.23575828       0.00000000
Si      -0.93809223       1.57343481      -1.46988425       0.00000000
Si       0.70296793      -2.18501028      -0.67973053       0.00000000
Si      -1.11125493       0.06499710      -3.32762222       0.00000000
Si       1.79728126      -0.33156666       3.09013345       0.00000000
Si      -0.40444812      -1.05497298       3.42572660       0.00000000
Si      -2.79774234       2.48453451      -0.08043255       0.00000000
Si       0.63241724       3.02410818       2.18406627       0.00000000
Si       0.70222347       3.31494984      -1.69707875       0.00000000
