10
Lattice="16.28999089631971 0.0 0.0 0.0 16.28999089631971 0.0 0.0 0.0 34.31420841018396" Properties=species:S:1:pos:R:3:initial_magmoms:R:1 pbc="T T T"
Si      -1.90369827      -1.28060577      -0.84666925       0.00000000
Si       0.50159095      -0.05859513       2.49155607       0.00000000
Si      -1.31263191       2.19141225      -0.15633562       0.00000000
Si       1.92006062      -0.50502258      -1.85152709       0.00000000
Si      -2.78506872      -1.68608016       1.36666706       0.00000000
Si      -1.12309776      -1.76321331       3.03931408       0.00000000
Si      -0.20137698       2.12641515       3.17128660       0.00000000
Si      -0.95544108      -2.94337494      -2.26892536       0.00000000
Si       0.28131739      -1.42944750      -3.58580247       0.00000000
Si      -3.64047291       1.60974522      -0.19421853       0.00000000
