10
Lattice="16.28999089631971 0.0 0.0 0.0 16.28999089631971 0.0 0.0 0.0 34.31420841018396" Properties=species:S:1:pos:R:3:initial_magmoms:R:1 pbc="T T T"
Si       0.87468733       0.38011086       2.08657238       0.00000000
Si      -1.87835103      -1.18967499      -0.59106257       0.00000000
Si       0.73063649       1.57229451      -1.55278743       0.00000000
Si      -1.03623948      -0.37152603       3.26225846       0.00000000
Si       2.88257156      -1.24199847       1.93017530       0.00000000
Si      -1.25468838      -2.36604105      -2.66751942       0.00000000
Si      -3.68087211       0.53771661      -0.74231969       0.00000000
Si      -1.01068047       2.95054254      -2.25458201       0.00000000
Si       1.10888541       0.44833338      -3.66074474       0.00000000
Si      -2.32842744      -2.91825576       0.95791598       0.00000000
