10
Lattice="16.28999089631971 0.0 0.0 0.0 16.28999089631971 0.0 0.0 0.0 34.31420841018396" Properties=species:S:1:pos:R:3:initial_magmoms:R:1 pbc="T T T"
Si       0.71433931      -2.20174011      -0.32543613       0.00000000
Si      -1.98412267      -0.16663041       1.29522483       0.00000000
Si       1.72658362       1.32535440       0.99130372       0.00000000
Si      -1.25893030      -0.33138747      -2.48441871       0.00000000
Si      -3.02261017      -2.10090501       0.38160852       0.00000000
Si       0.71277547      -3.17856996       1.77407988       0.00000000
Si       2.85074023      -2.10678570      -1.15079625       0.00000000
Si       3.25077376       1.66876389      -0.83284062       0.00000000
Si      -2.89792651       2.02548231       1.32871552       0.00000000
Si      -2.57952217      -2.20266864      -1.85835562       0.00000000
