10
Lattice="16.28999089631971 0.0 0.0 0.0 16.28999089631971 0.0 0.0 0.0 34.31420841018396" Properties=species:S:1:pos:R:3:initial_magmoms:R:1 pbc="T T T"
Si       1.34457075       1.37023335       1.38092119       0.00000000
Si      -1.36800162      -1.34786718       1.38164179       0.00000000
Si      -1.34102538       1.36500426      -1.39740917       0.00000000
Si       1.38480868      -1.48502898      -1.44214806       0.00000000
Si      -2.57219100      -0.08042373      -2.76133593       0.00000000
Si       2.69875520       2.70875007      -0.00814620       0.00000000
Si       2.71310669      -2.71099809       0.03294852       0.00000000
Si      -2.73447198      -2.69930187       0.00483144       0.00000000
Si      -2.72792340       2.71248477       0.02331309       0.00000000
Si       2.70452186       0.00918756       2.74216659       0.00000000
