10
Lattice="16.28999089631971 0.0 0.0 0.0 16.28999089631971 0.0 0.0 0.0 34.31420841018396" Properties=species:S:1:pos:R:3:initial_magmoms:R:1 pbc="T T T"
Si       1.35567009       1.35708732      -1.35709339       0.00000000
Si      -1.35681039       1.35711990       1.35750516       0.00000000
Si       1.35757602      -1.35778779       1.35651004       0.00000000
Si      -1.35669636      -1.35920502      -1.35726496       0.00000000
Si      -0.00042354      -2.71417464       2.71336323       0.00000000
Si       2.71336014      -0.00319284       2.71504463       0.00000000
Si       0.00333945       2.71414206      -2.71483874       0.00000000
Si      -2.71456560      -2.71494027       0.00034314       0.00000000
Si      -2.71495656       2.71521720      -0.00037746       0.00000000
Si       2.71497285       2.71523349       0.00027451       0.00000000
