10
Lattice="16.28999089631971 0.0 0.0 0.0 16.28999089631971 0.0 0.0 0.0 34.31420841018396" Properties=species:S:1:pos:R:3:initial_magmoms:R:1 pbc="T T T"
Si      -0.86294972      -1.49664375      -1.65072023       0.00000000
Si       1.77561489       0.71115624      -1.44823198       0.00000000
Si       0.30956376      -0.91435770       2.22531197       0.00000000
Si      -1.76047889       1.63626534       0.36987306       0.00000000
Si       1.82274186       1.03975812       2.91355244       0.00000000
Si      -1.99158512      -1.04643702       2.84736029       0.00000000
Si      -1.27094906      -0.02370195      -3.49181580       0.00000000
Si       2.59759200       2.69988831      -0.44577613       0.00000000
Si       3.44419959      -0.96084936      -1.47033034       0.00000000
Si      -3.15229649       0.87752601       2.13976660       0.00000000
