10
Lattice="16.28999089631971 0.0 0.0 0.0 16.28999089631971 0.0 0.0 0.0 34.31420841018396" Properties=species:S:1:pos:R:3:initial_magmoms:R:1 pbc="T T T"
Si       1.36380206       1.35130437      -1.34711481       0.00000000
Si       1.35453305      -1.35876519       1.36275523       0.00000000
Si      -1.36088682       1.35560493       1.36097089       0.00000000
Si      -1.37590620      -1.37239992      -1.36850630       0.00000000
Si       0.03550406       2.57727348      -2.82221139       0.00000000
Si       2.70775964      -2.71637379       0.00144120       0.00000000
Si       2.71206020       2.71251306       0.00905896       0.00000000
Si      -2.71469985      -2.71516833       0.00332848       0.00000000
Si       2.71173440      -0.00104256       2.71923097       0.00000000
Si      -2.71730625       2.71443528       0.00157845       0.00000000
