10
Lattice="16.28999089631971 0.0 0.0 0.0 16.28999089631971 0.0 0.0 0.0 34.31420841018396" Properties=species:S:1:pos:R:3:initial_magmoms:R:1 pbc="T T T"
Si       1.32829800      -1.22596911       1.47509658       0.00000000
Si       1.70073627       0.71918721      -1.54380881       0.00000000
Si      -0.95796603      -1.98679356      -1.10119675       0.00000000
Si      -1.38480868       1.48502898       1.44214806       0.00000000
Si       2.51328147       2.59801065       0.00282063       0.00000000
Si       2.73366888      -2.49771312       0.07981489       0.00000000
Si      -0.03550406      -2.57727348       2.82221139       0.00000000
Si       2.67655614       0.13523958       2.83127035       0.00000000
Si      -2.72583406       2.85003324       0.04473889       0.00000000
Si      -2.75281030       0.13716180       2.82378985       0.00000000
