10
Lattice="16.28999089631971 0.0 0.0 0.0 16.28999089631971 0.0 0.0 0.0 34.31420841018396" Properties=species:S:1:pos:R:3:initial_magmoms:R:1 pbc="T T T"
Si       1.35720135       1.35772263       1.35647573       0.00000000
Si       1.35322659      -1.35760860      -1.36131404       0.00000000
Si      -1.35771937      -1.35778779       1.35671593       0.00000000
Si      -1.35453305       1.35876519      -1.36275523       0.00000000
Si       0.00926901       2.71006956      -2.70987004       0.00000000
Si      -0.00017919      -2.71476108       2.71356912       0.00000000
Si       2.71458189      -0.00011403       2.71377500       0.00000000
Si       2.71301805       2.71544526      -0.00085786       0.00000000
Si      -0.00004887       2.71474479       2.71394657       0.00000000
Si      -2.71520765       0.00016290       2.71394657       0.00000000
