10
Lattice="16.28999089631971 0.0 0.0 0.0 16.28999089631971 0.0 0.0 0.0 34.31420841018396" Properties=species:S:1:pos:R:3:initial_magmoms:R:1 pbc="T T T"
Si      -1.35352238      -1.34157924      -1.38481928       0.00000000
Si       1.36362450       1.37334474      -1.38639774       0.00000000
Si      -1.31121191       1.45332864       1.38650068       0.00000000
Si       1.19220483      -1.57379319       1.49678661       0.00000000
Si      -2.69752856      -2.70000234      -0.01101487       0.00000000
Si       2.70839658      -2.69764029      -0.01255901       0.00000000
Si       2.69393106       2.73297330      -0.03180929       0.00000000
Si       0.00360498      -2.70029556      -2.74259895       0.00000000
Si      -2.70997412       2.73978252      -0.02024539       0.00000000
Si      -2.71258052       0.01234782      -2.74290778       0.00000000
