10
Lattice="16.28999089631971 0.0 0.0 0.0 16.28999089631971 0.0 0.0 0.0 34.31420841018396" Properties=species:S:1:pos:R:3:initial_magmoms:R:1 pbc="T T T"
Si       1.35397593      -1.35907470      -1.36025030       0.00000000
Si      -1.36035835       1.35824391      -1.36045618       0.00000000
Si      -1.36752595      -1.35384561       1.35815713       0.00000000
Si       1.37008674       1.34584722       1.37442207       0.00000000
Si      -0.13554909       2.53648332       2.73975087       0.00000000
Si      -0.00353493      -2.66076787       2.75474619       0.00000000
Si       2.71169856      -2.71548503       0.00006863       0.00000000
Si       2.71656927       2.71373481       0.00010294       0.00000000
Si       2.71308321       0.00050499      -2.71775545       0.00000000
Si      -2.71424699       2.71780731      -0.00322554       0.00000000
