10
Lattice="16.28999089631971 0.0 0.0 0.0 16.28999089631971 0.0 0.0 0.0 34.31420841018396" Properties=species:S:1:pos:R:3:initial_magmoms:R:1 pbc="T T T"
Si      -1.35759809       1.35267502       1.36186306       0.00000000
Si       1.35995110      -1.36104579       1.36124541       0.00000000
Si       1.35418444       1.33851672      -1.38906738       0.00000000
Si      -1.34457075      -1.37023335      -1.38092119       0.00000000
Si       2.55351940      -0.25725168      -2.82024862       0.00000000
Si      -2.71267011       2.71334289       0.00106374       0.00000000
Si       0.00108003       2.71126917       2.71809860       0.00000000
Si      -2.71257237      -2.71810053       0.00072060       0.00000000
Si       2.71795066       2.71274994      -0.00367162       0.00000000
Si      -2.71398960      -0.00320913       2.71871625       0.00000000
