10
Lattice="16.28999089631971 0.0 0.0 0.0 16.28999089631971 0.0 0.0 0.0 34.31420841018396" Properties=species:S:1:pos:R:3:initial_magmoms:R:1 pbc="T T T"
Si      -1.60987587      -1.10469006      -1.25902332       0.00000000
Si       2.06907435      -0.09537795      -1.12039384       0.00000000
Si       0.47426706      -1.21577157       1.97697991       0.00000000
Si      -0.89960059       2.15211167       0.50294363       0.00000000
Si       3.48366537       0.27608292       0.73257444       0.00000000
Si      -3.30686090      -1.66478913       0.36877500       0.00000000
Si      -0.58628524      -3.02914179      -2.20733132       0.00000000
Si      -2.26716794       1.89048123       2.38998595       0.00000000
Si      -2.17279997       0.29033667      -3.16490415       0.00000000
Si       2.65515597      -0.69504543       2.72410359       0.00000000
