10
Lattice="16.28999089631971 0.0 0.0 0.0 16.28999089631971 0.0 0.0 0.0 34.31420841018396" Properties=species:S:1:pos:R:3:initial_magmoms:R:1 pbc="T T T"
Si      -1.65600786      -1.09965645      -1.23575828       0.00000000
Si       0.14127340      -1.43122311       1.85437517       0.00000000
Si       1.90018777       0.21963807      -1.40949121       0.00000000
Si      -1.02359062       1.92445173       0.94830799       0.00000000
Si      -3.29942451      -1.34065071       0.38991257       0.00000000
Si      -2.06045598      -2.15462943       2.18996832       0.00000000
Si       3.58533941       1.04027940      -0.02535821       0.00000000
Si      -2.59410009       0.47377836      -2.70564253       0.00000000
Si       0.58628524       3.02914179       2.20733132       0.00000000
Si      -0.95378439       2.21529339      -2.93283703       0.00000000
