10
Lattice="10.86 0.0 0.0 0.0 10.86 0.0 0.0 0.0 10.86" Properties=species:S:1:pos:R:3:initial_magmoms:R:1 pbc="T T T"
Si       1.20069246      -1.30603446      -1.20384186       0.00000000
Si       1.32269370       0.71483778       1.68071532       0.00000000
Si      -1.51430754       1.40896554      -1.20384186       0.00000000
Si      -1.51430754      -1.30603446       1.51115814       0.00000000
Si       2.45101512       2.38457364       0.21259536       0.00000000
Si       2.49278268      -2.46469872       0.30788100       0.00000000
Si      -0.19404648       2.40133062       2.63630844       0.00000000
Si       2.55819246       0.05146554      -2.56134186       0.00000000
Si      -0.15680754      -2.66353446      -2.56134186       0.00000000
Si      -0.15680754       2.76646554      -2.56134186       0.00000000
