10
Lattice="10.86 0.0 0.0 0.0 10.86 0.0 0.0 0.0 10.86" Properties=species:S:1:pos:R:3:initial_magmoms:R:1 pbc="T T T"
Si      -1.15989144       1.50758520      -1.41408060       0.00000000
Si       1.55510856      -1.20741480      -1.41408060       0.00000000
Si       1.55510856       1.50758520       1.30091940       0.00000000
Si      -2.58280122      -2.36607906       0.09764226       0.00000000
Si      -2.62456878       2.48319330       0.00235662       0.00000000
Si      -2.51739144       0.15008520      -2.77158060       0.00000000
Si       0.19760856      -2.56491480      -2.77158060       0.00000000
Si      -0.04820754       2.84455980       2.54582292       0.00000000
Si       0.08541390      -2.53679826       2.87055864       0.00000000
Si       2.91260856      -2.56491480      -0.05658060       0.00000000
