10
Lattice="10.86 0.0 0.0 0.0 10.86 0.0 0.0 0.0 10.86" Properties=species:S:1:pos:R:3:initial_magmoms:R:1 pbc="T T T"
Si      -1.04128938      -1.37870958       1.54750656       0.00000000
Si       1.67371062      -1.37870958      -1.16749344       0.00000000
Si       1.67371062       1.33629042       1.54750656       0.00000000
Si      -2.46959658      -2.34227394       0.01519314       0.00000000
Si       0.20401596      -2.70809304      -2.31285420       0.00000000
Si      -2.59252092       2.66086290       0.15343008       0.00000000
Si       0.07039452       2.67326502      -2.63758992       0.00000000
Si      -2.39878938      -0.02120958       2.90500656       0.00000000
Si       3.03121062      -0.02120958      -2.52499344       0.00000000
Si       0.31621062       2.69379042       2.90500656       0.00000000
