10
Lattice="16.28999089631971 0.0 0.0 0.0 16.28999089631971 0.0 0.0 0.0 34.395419527814205" Properties=species:S:1:pos:R:3:initial_magmoms:R:1 pbc="T T T"
Si       1.24097709      -1.43272572       1.41046751       0.00000000
Si      -1.47458939       1.28016920       1.40466844       0.00000000
Si      -1.14410697      -1.81034421      -1.13644490       0.00000000
Si       1.75875474       0.87666590      -1.50787681       0.00000000
Si       2.61450102       2.58395564      -0.04126765       0.00000000
Si       2.54486127      -2.76888039      -0.06120668       0.00000000
Si       2.58965877      -0.07586416       2.77213478       0.00000000
Si       0.56995941      -3.56441883      -1.28361294       0.00000000
Si      -0.12128557       2.64186659       2.77309785       0.00000000
Si      -2.83029206       2.61467858       0.02353680       0.00000000
