10
Lattice="16.28999089631971 0.0 0.0 0.0 16.28999089631971 0.0 0.0 0.0 34.395419527814205" Properties=species:S:1:pos:R:3:initial_magmoms:R:1 pbc="T T T"
Si      -1.35777150       1.35406025      -1.35831027       0.00000000
Si       1.35837423       1.35574300       1.35755357       0.00000000
Si      -1.35664749      -1.35884607       1.35738159       0.00000000
Si       1.35933534      -1.36112667      -1.36367596       0.00000000
Si      -2.70645318      -0.00280131      -2.71997754       0.00000000
Si       0.00070047       2.71283032       2.71472879       0.00000000
Si      -2.71515204       2.71250452       0.00027516       0.00000000
Si       2.71458189       2.71310725       0.00137582       0.00000000
Si      -2.71425609      -0.00167420       2.71466000       0.00000000
Si       2.71520091      -0.00151256       2.71479759       0.00000000
