10
Lattice="16.28999089631971 0.0 0.0 0.0 16.28999089631971 0.0 0.0 0.0 34.395419527814205" Properties=species:S:1:pos:R:3:initial_magmoms:R:1 pbc="T T T"
Si       1.39204566      -1.38406356       1.31524718       0.00000000
Si       1.36938627       1.34791605      -1.37657425       0.00000000
Si      -1.34775315      -1.36684503      -1.37991061       0.00000000
Si      -1.35661491       1.36474362       1.52705429       0.00000000
Si      -2.70111495       2.69768916      -0.00010319       0.00000000
Si      -2.70290685      -2.70839821       0.00192614       0.00000000
Si       2.73564486       2.70412371      -0.00983710       0.00000000
Si      -2.70337274      -0.00882918      -2.73712022       0.00000000
Si       0.01174509       2.70687672      -2.73663869       0.00000000
Si       2.71772586      -2.72861735      -0.04412935       0.00000000
