10
Lattice="16.28999089631971 0.0 0.0 0.0 16.28999089631971 0.0 0.0 0.0 34.395419527814205" Properties=species:S:1:pos:R:3:initial_magmoms:R:1 pbc="T T T"
Si       1.35482301      -1.35690880       1.35820709       0.00000000
Si       1.35695700       1.35675175      -1.35665929       0.00000000
Si      -1.35799956      -1.35775278      -1.35672808       0.00000000
Si      -1.35899325       1.35590467       1.35789753       0.00000000
Si       2.70648576      -0.00586766       2.69367879       0.00000000
Si      -0.00052128       2.71431148      -2.71380012       0.00000000
Si       2.71463076      -0.00033557      -2.71383451       0.00000000
Si      -2.71461284       2.71392052       0.00068791       0.00000000
Si      -2.71438152      -2.71420789       0.00065351       0.00000000
Si      -2.71503964      -0.00047567      -2.71383451       0.00000000
