10
Lattice="16.28999089631971 0.0 0.0 0.0 16.28999089631971 0.0 0.0 0.0 34.395419527814205" Properties=species:S:1:pos:R:3:initial_magmoms:R:1 pbc="T T T"
Si      -1.35679410       1.18705393      -1.43704143       0.00000000
Si      -1.25402049      -1.28208394       1.50535077       0.00000000
Si       1.37363796      -1.52182387      -1.37131175       0.00000000
Si       0.79430040       1.97098737       1.26365402       0.00000000
Si       0.54014382      -1.18833499       3.22938774       0.00000000
Si      -2.68247430       2.53160772      -0.07766490       0.00000000
Si       0.54882639       1.18689754       3.48267576       0.00000000
Si       0.00943191       2.55006429      -2.77175643       0.00000000
Si      -2.61899217      -2.81187784       0.09273010       0.00000000
Si       2.72554506       2.74026633       0.06383793       0.00000000
