10
Lattice="16.28999089631971 0.0 0.0 0.0 16.28999089631971 0.0 0.0 0.0 34.395419527814205" Properties=species:S:1:pos:R:3:initial_magmoms:R:1 pbc="T T T"
Si      -1.39237146      -1.85853492       0.63287607       0.00000000
Si       0.24635367      -1.42018731      -1.95056533       0.00000000
Si       1.91410758       0.75044446       1.29987242       0.00000000
Si      -1.64595789       1.78049537      -0.37291535       0.00000000
Si      -3.44277747      -0.81496494       0.77283111       0.00000000
Si      -1.73092653      -2.92109904      -1.50204881       0.00000000
Si      -3.51508878       0.56883377      -1.19967851       0.00000000
Si      -1.63476666       2.98116611       1.65528049       0.00000000
Si       3.68087211      -0.84503628       1.26224381       0.00000000
Si       2.48036427      -2.46457179      -2.09285926       0.00000000
