10
Lattice="16.28999089631971 0.0 0.0 0.0 16.28999089631971 0.0 0.0 0.0 34.395419527814205" Properties=species:S:1:pos:R:3:initial_magmoms:R:1 pbc="T T T"
Si      -1.26499995      -1.95808148       0.19003480       0.00000000
Si       2.34186669      -0.28775959       0.24916056       0.00000000
Si      -0.59279310       0.53054901      -2.24210107       0.00000000
Si      -0.47333853       1.64081025       1.68967593       0.00000000
Si       1.32087465       1.94023674      -2.51121098       0.00000000
Si       2.57846265      -2.59879976      -0.07587634       0.00000000
Si       3.19021731       0.83792502      -1.61263015       0.00000000
Si      -2.60239266       1.73320713      -1.95022138       0.00000000
Si      -3.72694023       0.88050708       0.01908947       0.00000000
Si      -0.57888144      -3.06576890       2.26119054       0.00000000
