10
Lattice="16.28999089631971 0.0 0.0 0.0 16.28999089631971 0.0 0.0 0.0 34.395419527814205" Properties=species:S:1:pos:R:3:initial_magmoms:R:1 pbc="T T T"
Si      -2.00959956       1.20265812       0.29187969       0.00000000
Si       0.59279310      -0.53054901       2.24210107       0.00000000
Si       1.91366775       1.40968773      -0.26910991       0.00000000
Si      -0.57731760      -1.43647501      -1.89505109       0.00000000
Si      -0.76936041       3.26168154       0.39200482       0.00000000
Si       2.12061591       1.02828996      -2.62313374       0.00000000
Si      -0.67220685      -2.48863049       2.43213587       0.00000000
Si       1.38497580      -1.18222720      -3.10828140       0.00000000
Si       1.49385816       3.25723437       1.31225478       0.00000000
Si       3.78301041       0.30737601       0.62947092       0.00000000
