10
Lattice="16.28999089631971 0.0 0.0 0.0 16.28999089631971 0.0 0.0 0.0 34.395419527814205" Properties=species:S:1:pos:R:3:initial_magmoms:R:1 pbc="T T T"
Si      -1.35716877      -1.35627282       1.35686566       0.00000000
Si       1.35894438      -1.35589815      -1.35734720       0.00000000
Si       1.35798327       1.35892809       1.35665929       0.00000000
Si      -1.35612621       1.35913986      -1.36099312       0.00000000
Si       2.71419093      -2.71355562       0.00065351       0.00000000
Si       0.00030951      -2.71383255       2.71400649       0.00000000
Si      -2.71459818       0.00131949       2.71431605       0.00000000
Si      -2.71554300      -2.71415835      -0.00044714       0.00000000
Si       2.71564074       0.00164529       2.71421286       0.00000000
Si      -2.71453302       2.71590138      -0.00096307       0.00000000
