10
Lattice="16.28999089631971 0.0 0.0 0.0 16.28999089631971 0.0 0.0 0.0 34.395419527814205" Properties=species:S:1:pos:R:3:initial_magmoms:R:1 pbc="T T T"
Si       1.41131673       1.81485261       0.14081493       0.00000000
Si      -1.67844015      -0.21289401       1.57128683       0.00000000
Si       1.19140173      -2.16803610       0.59648570       0.00000000
Si       0.07066602      -2.50906725      -1.43907076       0.00000000
Si      -0.49619340      -2.06210223       2.41779297       0.00000000
Si      -3.29056371      -0.86807781       0.00192614       0.00000000
Si       1.74979035       1.61099955       2.45311709       0.00000000
Si       3.34065546      -1.04094729       0.07357184       0.00000000
Si       3.21709581       1.03891104      -1.14344197       0.00000000
Si       0.54485163      -1.23111675      -3.45134151       0.00000000
