10
Lattice="16.28999089631971 0.0 0.0 0.0 16.28999089631971 0.0 0.0 0.0 34.395419527814205" Properties=species:S:1:pos:R:3:initial_magmoms:R:1 pbc="T T T"
Si      -0.80006706       2.00300211      -0.87068614       0.00000000
Si       0.74285658      -0.08016309       2.20319983       0.00000000
Si       2.09854296      -0.15107346      -1.14983952       0.00000000
Si      -1.74838941      -1.57025826      -0.48731458       0.00000000
Si      -0.08651619      -2.29459311       2.68865705       0.00000000
Si      -0.49283766      -2.68397298      -2.27357290       0.00000000
Si       1.36135530      -1.37951865      -3.02858717       0.00000000
Si       1.03643496       3.43341072      -0.58726772       0.00000000
Si      -1.37355651       1.46903220      -3.12558231       0.00000000
Si      -2.34973476      -2.29014594       1.76840709       0.00000000
