10
Lattice="16.28999089631971 0.0 0.0 0.0 16.28999089631971 0.0 0.0 0.0 34.395419527814205" Properties=species:S:1:pos:R:3:initial_magmoms:R:1 pbc="T T T"
Si      -0.00526167      -1.87413192       1.55776942       0.00000000
Si       2.32031502       0.45421407      -0.64883556       0.00000000
Si      -1.04091471       2.09520351       0.79216135       0.00000000
Si      -0.89160057      -1.08411579      -2.21458472       0.00000000
Si       0.00592956      -0.67346118       3.58596526       0.00000000
Si       0.57120885       2.75038731       2.36152203       0.00000000
Si      -1.87439256      -3.08579352       0.73100626       0.00000000
Si       1.75345560       0.90117909       3.20802818       0.00000000
Si       3.44105073       0.79524522       1.38672090       0.00000000
Si       2.87541306      -1.66873131      -1.83668203       0.00000000
