10
Lattice="16.28999089631971 0.0 0.0 0.0 16.28999089631971 0.0 0.0 0.0 34.395419527814205" Properties=species:S:1:pos:R:3:initial_magmoms:R:1 pbc="T T T"
Si      -0.58068963       1.91811492       1.17818136       0.00000000
Si       0.99274518       1.81301184      -1.16170594       0.00000000
Si       0.93312378      -1.75778874       1.33794817       0.00000000
Si      -1.81014480      -0.84655872      -1.40192369       0.00000000
Si       2.22065280       0.48368268      -2.76315757       0.00000000
Si      -0.49586760      -2.23032906      -2.77540235       0.00000000
Si      -2.87637417       1.65783330       1.53465569       0.00000000
Si      -2.86080093      -2.28389058       0.09008165       0.00000000
Si      -0.92624940      -3.39252282       1.23861414       0.00000000
Si       2.70451467      -2.59081047      -0.01282950       0.00000000
