10
Lattice="16.28999089631971 0.0 0.0 0.0 16.28999089631971 0.0 0.0 0.0 34.395419527814205" Properties=species:S:1:pos:R:3:initial_magmoms:R:1 pbc="T T T"
Si      -1.10868111      -0.82717362      -1.92810511       0.00000000
Si      -0.12768102       2.30081589       0.63125949       0.00000000
Si       2.35794492      -0.46460709      -0.43541186       0.00000000
Si      -1.63227429      -0.99064377       1.52787978       0.00000000
Si       1.04376546       1.96175583       2.72487545       0.00000000
Si      -0.58777578      -3.09184200       1.72448411       0.00000000
Si       2.47177944      -0.29466981      -2.84446839       0.00000000
Si      -3.72957921      -0.41969556       0.61161969       0.00000000
Si       0.85515984       3.50624331      -1.24955189       0.00000000
Si      -3.40436565      -1.08745524      -1.57163078       0.00000000
