10
Lattice="16.28999089631971 0.0 0.0 0.0 16.28999089631971 0.0 0.0 0.0 34.395419527814205" Properties=species:S:1:pos:R:3:initial_magmoms:R:1 pbc="T T T"
Si      -0.01023012       1.94105124      -1.31854914       0.00000000
Si       1.87067844      -0.97814934      -1.03702248       0.00000000
Si      -2.04009444      -1.18112274      -0.32142538       0.00000000
Si       0.57348945       0.53396991       2.25489617       0.00000000
Si       3.33992241       0.77713074      -0.62806071       0.00000000
Si       2.10962016       2.75504625      -0.92007799       0.00000000
Si       1.37355651      -1.46903220       3.12558231       0.00000000
Si      -1.55755206      -2.80204290      -1.91885274       0.00000000
Si       1.53220482      -0.77429628      -3.34932464       0.00000000
Si      -1.12189230       1.91097990       3.04485622       0.00000000
