10
Lattice="16.28999089631971 0.0 0.0 0.0 16.28999089631971 0.0 0.0 0.0 34.395419527814205" Properties=species:S:1:pos:R:3:initial_magmoms:R:1 pbc="T T T"
Si      -2.32253046      -0.05975172      -0.11883624       0.00000000
Si       1.21404483      -1.40592474      -1.40581037       0.00000000
Si       0.38309193       2.31456465      -0.38505694       0.00000000
Si       0.96097968       0.00081450       2.31367798       0.00000000
Si       1.35387819       2.51279766       1.71502537       0.00000000
Si       3.35608209      -0.35070741      -0.92523730       0.00000000
Si      -2.65204458       1.34672688       2.02802386       0.00000000
Si       3.23869635      -0.77100570       1.44354217       0.00000000
Si      -2.86104528       1.81231137      -1.46094626       0.00000000
Si       0.38467206      -3.62035476      -0.92035315       0.00000000
