10
Lattice="16.28999089631971 0.0 0.0 0.0 16.28999089631971 0.0 0.0 0.0 34.395419527814205" Properties=species:S:1:pos:R:3:initial_magmoms:R:1 pbc="T T T"
Si       0.97078626       0.19823301       2.10008230       0.00000000
Si      -2.06307963       1.12202262       0.05155876       0.00000000
Si       1.45829709       0.76712868      -1.70075126       0.00000000
Si      -0.38309193      -2.31456465       0.38505694       0.00000000
Si      -3.24413721      -0.50225328      -1.07588932       0.00000000
Si       3.22320456       0.27113076       1.45898572       0.00000000
Si       3.44987991      -0.29217744      -0.80406217       0.00000000
Si       0.69804279       3.10114359      -1.67038009       0.00000000
Si       0.57788775      -2.31375015       2.69873492       0.00000000
Si      -2.70562239      -2.37431637       0.26622070       0.00000000
