10
Lattice="16.28999089631971 0.0 0.0 0.0 16.28999089631971 0.0 0.0 0.0 34.395419527814205" Properties=species:S:1:pos:R:3:initial_magmoms:R:1 pbc="T T T"
Si      -0.96097968      -0.00081450      -2.31367798       0.00000000
Si       2.27771667      -0.77182020      -0.87013581       0.00000000
Si       0.79982271      -1.45129239       2.00834967       0.00000000
Si       0.39289851       2.51198316      -0.59865261       0.00000000
Si      -2.14462737       1.20374955       1.75086541       0.00000000
Si      -0.57788775       2.31375015      -2.69873492       0.00000000
Si       3.52137672       0.96161499       0.14538952       0.00000000
Si      -3.61302426       1.34591238      -0.28565412       0.00000000
Si       1.85635953       0.15216489       3.40740619       0.00000000
Si       2.64531681       2.58488091      -1.23974919       0.00000000
