10
Lattice="16.28999089631971 0.0 0.0 0.0 16.28999089631971 0.0 0.0 0.0 34.395419527814205" Properties=species:S:1:pos:R:3:initial_magmoms:R:1 pbc="T T T"
Si       0.60922971      -1.77393213       1.36288487       0.00000000
Si       1.63919754       1.66174290      -0.04605549       0.00000000
Si       0.30885840      -0.98326440      -2.09550771       0.00000000
Si      -2.32217208       0.14011029       0.63201619       0.00000000
Si       0.77384016       2.96870589       1.63175401       0.00000000
Si      -1.81099188      -1.79725941      -2.49397887       0.00000000
Si      -1.22727231      -3.20434074       1.07946645       0.00000000
Si       1.39204566       2.49958647      -2.26287592       0.00000000
Si       0.94299552      -0.79988787       3.47335459       0.00000000
Si      -3.38403573      -0.33174585      -1.47023303       0.00000000
