10
Lattice="16.28999089631971 0.0 0.0 0.0 16.28999089631971 0.0 0.0 0.0 34.395419527814205" Properties=species:S:1:pos:R:3:initial_magmoms:R:1 pbc="T T T"
Si      -0.29716218       1.81783368      -1.42201062       0.00000000
Si       1.57304385      -1.46551356      -1.02374584       0.00000000
Si      -1.98871578      -1.33188669       0.14456403       0.00000000
Si       1.06186365       0.47185614       2.10224922       0.00000000
Si      -1.60783929      -1.91511756       2.40042327       0.00000000
Si       0.46138167      -1.49558490       3.33965952       0.00000000
Si      -0.63571725       0.75526956      -3.55693551       0.00000000
Si       3.38403573       0.33174585       1.47023303       0.00000000
Si       1.58327397      -3.40656480       0.29480331       0.00000000
Si       3.69289413      -0.65151855      -0.62527468       0.00000000
