10
Lattice="16.28999089631971 0.0 0.0 0.0 16.28999089631971 0.0 0.0 0.0 34.395419527814205" Properties=species:S:1:pos:R:3:initial_magmoms:R:1 pbc="T T T"
Si      -1.35669636       1.35317935       1.36285047       0.00000000
Si       1.35998694      -1.36220166       1.36054598       0.00000000
Si       1.35182565       1.35756136      -1.37991405       0.00000000
Si      -1.34571690      -1.37058448      -1.38965483       0.00000000
Si       2.69048898      -0.10857285      -2.72321071       0.00000000
Si      -2.71194291       2.71083682       0.00484976       0.00000000
Si       2.71801908       2.71119520      -0.00254526       0.00000000
Si       0.00171045       2.71075537       2.71885625       0.00000000
Si      -2.71290402      -0.00418490       2.71902822       0.00000000
Si      -2.71194291      -2.72105458      -0.00220131       0.00000000
