10
Lattice="16.28999089631971 0.0 0.0 0.0 16.28999089631971 0.0 0.0 0.0 34.395419527814205" Properties=species:S:1:pos:R:3:initial_magmoms:R:1 pbc="T T T"
Si      -1.35182565      -1.35756136       1.37991405       0.00000000
Si       1.36619343       1.35363384       1.37736878       0.00000000
Si       1.33866333      -1.46613421      -1.34329666       0.00000000
Si      -1.38199473       1.36862064      -1.53072773       0.00000000
Si       2.41644231       0.24272100      -2.55224302       0.00000000
Si      -2.71526607       2.69829189      -0.00038867       0.00000000
Si      -2.69754255      -2.72814584      -0.00974079       0.00000000
Si       2.71376739       2.71987614      -0.00412401       0.00000000
Si       0.00718389       2.70954828       2.74094156       0.00000000
Si      -2.70852201      -0.00438201       2.74276452       0.00000000
