10
Lattice="16.28999089631971 0.0 0.0 0.0 16.28999089631971 0.0 0.0 0.0 34.395419527814205" Properties=species:S:1:pos:R:3:initial_magmoms:R:1 pbc="T T T"
Si       0.66479490       1.10834228       1.97244083       0.00000000
Si       0.24547401       0.78408983      -2.21902173       0.00000000
Si      -0.00868257      -2.37523254      -0.25328801       0.00000000
Si      -2.23717086       0.86980781      -0.04698417       0.00000000
Si       1.00866051       3.11232179       0.74208159       0.00000000
Si      -3.30291153      -1.21780831      -0.54086827       0.00000000
Si      -1.61209098       2.41533785      -2.16302596       0.00000000
Si       2.75641461       0.19385589       2.35030912       0.00000000
Si      -1.80284688      -2.46898149      -1.97732498       0.00000000
Si       2.44934811      -2.73607233      -0.17809958       0.00000000
