10
Lattice="16.28999089631971 0.0 0.0 0.0 16.28999089631971 0.0 0.0 0.0 34.395419527814205" Properties=species:S:1:pos:R:3:initial_magmoms:R:1 pbc="T T T"
Si      -1.99570419      -0.98434673       0.65114005       0.00000000
Si       1.54396620      -1.72309823       0.27385648       0.00000000
Si       0.07452675       1.61407836       1.71048517       0.00000000
Si       0.55172601       1.17063361      -1.98117727       0.00000000
Si       2.04211440       2.63384865      -0.83398620       0.00000000
Si      -1.53989370       2.08512000      -2.35904556       0.00000000
Si      -2.48938893       2.52434727      -0.16461657       0.00000000
Si       1.94290830      -1.57510358       2.56658764       0.00000000
Si       1.90780335       0.74421679       2.95553126       0.00000000
Si       0.35973207      -3.51959201      -0.64945467       0.00000000
