10
Lattice="16.28999089631971 0.0 0.0 0.0 16.28999089631971 0.0 0.0 0.0 34.395419527814205" Properties=species:S:1:pos:R:3:initial_magmoms:R:1 pbc="T T T"
Si       0.82885149       1.98907416      -0.75859140       0.00000000
Si      -1.09849986       0.89762787       1.85078416       0.00000000
Si      -0.07452675      -1.61407836      -1.71048517       0.00000000
Si       1.83327660      -0.86986157       1.24504609       0.00000000
Si      -2.56391568       0.91026891      -1.87510174       0.00000000
Si       2.20341798       2.23681248       1.15431092       0.00000000
Si       1.96758765       1.01977029      -2.54447137       0.00000000
Si      -2.07023094      -2.59842509      -1.05934512       0.00000000
Si       0.44189883       2.48824863       2.74221075       0.00000000
Si      -0.97643889      -0.75511480       3.53320265       0.00000000
