10
Lattice="16.28999089631971 0.0 0.0 0.0 16.28999089631971 0.0 0.0 0.0 34.395419527814205" Properties=species:S:1:pos:R:3:initial_magmoms:R:1 pbc="T T T"
Si      -1.21648833       0.31811112       1.94912072       0.00000000
Si      -0.98328069      -0.71740834      -2.06014920       0.00000000
Si      -0.34997436       2.36521026      -0.14033339       0.00000000
Si       2.24243253      -0.92506675       0.09506899       0.00000000
Si       0.05795982       1.76684598       3.31505100       0.00000000
Si       2.05332192      -2.73490271       1.85776644       0.00000000
Si      -0.74668473      -3.02844851      -2.38518610       0.00000000
Si      -0.13493007       0.40827627      -3.92193990       0.00000000
Si       2.96235279      -1.66224463      -2.04095654       0.00000000
Si       3.86035533       0.98521920      -0.00309559       0.00000000
