10
Lattice="16.28999089631971 0.0 0.0 0.0 16.28999089631971 0.0 0.0 0.0 34.395419527814205" Properties=species:S:1:pos:R:3:initial_magmoms:R:1 pbc="T T T"
Si      -1.06297914       0.03575655       2.09365036       0.00000000
Si      -1.57391499       0.36712773      -1.73820789       0.00000000
Si       2.06221567       1.26555381      -0.26095819       0.00000000
Si       0.48069776      -2.21911244      -0.89025714       0.00000000
Si       1.50450797      -1.37720384      -2.78128397       0.00000000
Si      -0.97471992      -2.27790305       2.43371806       0.00000000
Si      -0.04508220       0.25023069      -3.47493678       0.00000000
Si       3.24118813      -0.09572004      -1.79661135       0.00000000
Si       1.63217596       3.23716509      -1.51240184       0.00000000
Si       0.07180524       1.21386564       3.75240479       0.00000000
