10
Lattice="16.28999089631971 0.0 0.0 0.0 16.28999089631971 0.0 0.0 0.0 34.395419527814205" Properties=species:S:1:pos:R:3:initial_magmoms:R:1 pbc="T T T"
Si       1.35681039      -1.35772263       1.36367596       0.00000000
Si      -1.35900954       1.35591444       1.36357277       0.00000000
Si       1.34757396       1.36624230      -1.38149280       0.00000000
Si      -1.36619343      -1.35363384      -1.37736878       0.00000000
Si       2.71072116       2.71625976       0.00546887       0.00000000
Si      -2.71801908      -2.71119520       0.00254526       0.00000000
Si      -2.71585251       2.71441899       0.00158219       0.00000000
Si       2.71414206      -0.00022806       2.72150470       0.00000000
Si       2.71650411      -2.71945586       0.00619118       0.00000000
Si      -0.00122175       2.71477737       2.72133272       0.00000000
