10
Lattice="16.28999089631971 0.0 0.0 0.0 16.28999089631971 0.0 0.0 0.0 34.395419527814205" Properties=species:S:1:pos:R:3:initial_magmoms:R:1 pbc="T T T"
Si       1.35684297      -1.35850455       1.36199058       0.00000000
Si      -1.35881406       1.35863487       1.36288487       0.00000000
Si       1.36269108       1.36800162      -1.38306123       0.00000000
Si      -1.36560699      -1.36976094      -1.37933964       0.00000000
Si       2.71399545       2.71420722       0.00371471       0.00000000
Si      -2.71410948      -2.71477737       0.00581283       0.00000000
Si       2.71585251      -2.71441899      -0.00158219       0.00000000
Si      -2.71435383       2.71609686       0.00423064       0.00000000
Si       2.71463076       0.00035838       2.71975053       0.00000000
Si      -0.00045612      -2.71485882       2.71981932       0.00000000
