10
Lattice="16.28999089631971 0.0 0.0 0.0 16.28999089631971 0.0 0.0 0.0 34.395419527814205" Properties=species:S:1:pos:R:3:initial_magmoms:R:1 pbc="T T T"
Si       1.33845156       1.34794863      -1.38159598       0.00000000
Si      -1.37624436      -1.36624230      -1.38506992       0.00000000
Si      -1.23491232       1.41014385       1.47962298       0.00000000
Si       1.39359321      -1.25305938       1.53427734       0.00000000
Si      -2.23537896      -0.37227537       2.74802358       0.00000000
Si      -0.44044902      -2.11362750       2.89647429       0.00000000
Si       2.70249471       2.70601335      -0.00443701       0.00000000
Si      -2.71924083       2.70221778      -0.00230449       0.00000000
Si       2.70039330      -2.72955240       0.01991496       0.00000000
Si       2.69949735      -0.00755856      -2.74162603       0.00000000
