10
Lattice="16.28999089631971 0.0 0.0 0.0 16.28999089631971 0.0 0.0 0.0 34.395419527814205" Properties=species:S:1:pos:R:3:initial_magmoms:R:1 pbc="T T T"
Si      -1.22150565       1.36203948       1.40464093       0.00000000
Si       1.34807895       1.35690813      -1.33626280       0.00000000
Si       1.35298224      -1.16817219       1.50084497       0.00000000
Si      -1.36313091      -1.35837423      -1.33474940       0.00000000
Si      -0.57826242      -1.93745115       2.70066106       0.00000000
Si       0.48894435       2.35087506       2.79683071       0.00000000
Si      -2.43582741      -0.30620313       2.75665683       0.00000000
Si       2.28387429       0.60952293       2.94528142       0.00000000
Si       2.70909216       0.00035838      -2.69299088       0.00000000
Si      -0.00672777      -2.71562934      -2.69292209       0.00000000
