10
Lattice="16.28999089631971 0.0 0.0 0.0 16.28999089631971 0.0 0.0 0.0 34.395419527814205" Properties=species:S:1:pos:R:3:initial_magmoms:R:1 pbc="T T T"
Si      -1.96530705       0.99906570      -0.77730252       0.00000000
Si       0.26753067      -2.34624870      -0.03893564       0.00000000
Si       0.57376638       0.82437174       2.15556215       0.00000000
Si       1.56527352       0.90471402      -1.54820749       0.00000000
Si       0.14674032      -2.85834114       2.29011710       0.00000000
Si       2.02904982      -2.59768485      -1.62683546       0.00000000
Si      -1.32929658       3.31172442      -1.16528307       0.00000000
Si       2.93443173       2.37076515      -0.19498774       0.00000000
Si       0.45841689      -0.98096751       3.63652655       0.00000000
Si      -2.70249471      -0.22937949      -2.65605018       0.00000000
