10
Lattice="16.28999089631971 0.0 0.0 0.0 16.28999089631971 0.0 0.0 0.0 34.395419527814205" Properties=species:S:1:pos:R:3:initial_magmoms:R:1 pbc="T T T"
Si      -0.99274518      -1.81301184       1.16170594       0.00000000
Si       1.22790762      -1.32932916      -1.60145163       0.00000000
Si       2.00702574       0.63760689       1.42352402       0.00000000
Si      -1.48550139       1.38696318      -1.58789983       0.00000000
Si      -1.57343481       0.10510308       2.33988730       0.00000000
Si       2.70938538       2.54708811      -0.06177421       0.00000000
Si       2.71223613      -2.62140309      -0.11952415       0.00000000
Si      -2.80288998      -2.65957056      -0.24021774       0.00000000
Si       2.57360823       0.03113019      -2.98088070       0.00000000
Si      -2.76872985       2.81497716      -0.11821712       0.00000000
