10
Lattice="16.28999089631971 0.0 0.0 0.0 16.28999089631971 0.0 0.0 0.0 34.395419527814205" Properties=species:S:1:pos:R:3:initial_magmoms:R:1 pbc="T T T"
Si      -1.46924397      -1.75528008      -0.40896177       0.00000000
Si       1.89141561      -0.61799373      -1.21422778       0.00000000
Si       0.76818753      -0.08457768       2.21582296       0.00000000
Si      -1.23030225       1.97791551      -0.29201727       0.00000000
Si       3.25847241       1.12790331      -0.44445786       0.00000000
Si      -3.33992241      -0.77713074       0.62806071       0.00000000
Si       2.58738957       1.44788778       1.84878923       0.00000000
Si      -0.92993094       1.18724778       3.16637530       0.00000000
Si       0.13217706      -2.39723640       2.60380350       0.00000000
Si      -3.35015253       1.16392050      -0.69048843       0.00000000
