10
Lattice="16.28999089631971 0.0 0.0 0.0 16.28999089631971 0.0 0.0 0.0 34.395419527814205" Properties=species:S:1:pos:R:3:initial_magmoms:R:1 pbc="T T T"
Si      -0.87605991       1.62326592      -1.38513871       0.00000000
Si      -1.24366005      -1.73343519      -1.01552533       0.00000000
Si       2.32839486      -0.41345649      -0.14624941       0.00000000
Si      -0.82784151       1.01810871       2.01607783       0.00000000
Si      -3.12847821       1.55036817      -0.74404213       0.00000000
Si      -3.52137672      -0.96161499      -0.14538952       0.00000000
Si       3.23299485       1.70349417       0.69915608       0.00000000
Si       0.25280451       3.62007783      -0.85795982       0.00000000
Si      -1.66501719      -0.80945010       3.26201667       0.00000000
Si      -1.12627431      -1.31313690      -3.38430480       0.00000000
