10
Lattice="16.28999089631971 0.0 0.0 0.0 16.28999089631971 0.0 0.0 0.0 34.395419527814205" Properties=species:S:1:pos:R:3:initial_magmoms:R:1 pbc="T T T"
Si      -1.72688661      -1.14036516       1.23498684       0.00000000
Si       1.10465748       1.73628594       1.29816782       0.00000000
Si      -0.75012192       1.01828790      -2.22149820       0.00000000
Si       1.75606200      -1.94147478       0.13939390       0.00000000
Si      -0.54457470      -1.40921532      -2.62072606       0.00000000
Si       2.35651140       0.35544780       2.83795531       0.00000000
Si      -0.37028799      -2.37182400       2.82884740       0.00000000
Si       1.70784360      -1.33631757      -3.26182264       0.00000000
Si       2.96362341       2.65458582      -0.15918209       0.00000000
Si       2.83670802       0.66049434      -2.73464375       0.00000000
