10
Lattice="16.28999089631971 0.0 0.0 0.0 16.28999089631971 0.0 0.0 0.0 34.395419527814205" Properties=species:S:1:pos:R:3:initial_magmoms:R:1 pbc="T T T"
Si       1.67272236       1.08439272       1.18672347       0.00000000
Si       0.00395847       0.34427286      -2.29663129       0.00000000
Si      -1.07777898      -1.70885521       1.20894636       0.00000000
Si      -1.61396433      -1.56601309      -2.19846671       0.00000000
Si       2.35079361      -0.09376524      -2.15650428       0.00000000
Si      -2.41644231      -0.24272100       2.55224302       0.00000000
Si       0.29732508       2.47715514       2.54811901       0.00000000
Si       3.16967434       1.94295717      -0.49606447       0.00000000
Si      -1.80307494      -3.37584905      -0.43576927       0.00000000
Si       0.32511582      -2.97115221       2.57752367       0.00000000
