10
Lattice="16.28999089631971 0.0 0.0 0.0 16.28999089631971 0.0 0.0 0.0 34.395419527814205" Properties=species:S:1:pos:R:3:initial_magmoms:R:1 pbc="T T T"
Si      -1.35637056       1.35905841      -1.36412310       0.00000000
Si       1.35910728      -1.35691953      -1.36401991       0.00000000
Si      -1.35668007      -1.35198040       1.39246494       0.00000000
Si       1.35925389       1.35229806       1.39758986       0.00000000
Si       2.71445815      -2.71511147      -0.00361152       0.00000000
Si      -2.71490769      -2.71682081      -0.00051593       0.00000000
Si       2.71819827       2.71386513      -0.00312998       0.00000000
Si      -2.71738377       2.71560816      -0.00739502       0.00000000
Si      -2.71480995       0.00091224      -2.72140151       0.00000000
Si       0.00127062      -2.71532847      -2.72160788       0.00000000
