10
Lattice="16.28999089631971 0.0 0.0 0.0 16.28999089631971 0.0 0.0 0.0 34.395419527814205" Properties=species:S:1:pos:R:3:initial_magmoms:R:1 pbc="T T T"
Si      -1.15952220      -1.97911350      -0.54038674       0.00000000
Si      -0.85245570       0.95081472       1.98802196       0.00000000
Si       2.44291356      -0.13551977      -0.07068263       0.00000000
Si      -0.24975828       3.46799276       0.05609896       0.00000000
Si       0.36531954      -2.50769142      -2.43278938       0.00000000
Si      -3.60887031       0.75695883      -0.36228716       0.00000000
Si      -2.94407541       1.86530111       1.61015367       0.00000000
Si       2.88057699      -2.26420479       1.29165191       0.00000000
Si       3.22144524       0.17481125      -2.36183159       0.00000000
Si       0.63793269       2.41402976       3.13521303       0.00000000
