10
Lattice="16.28999089631971 0.0 0.0 0.0 16.28999089631971 0.0 0.0 0.0 34.395419527814205" Properties=species:S:1:pos:R:3:initial_magmoms:R:1 pbc="T T T"
Si      -1.13873616       0.96930387       1.78587997       0.00000000
Si       0.64604511       1.86917976      -1.27889120       0.00000000
Si      -1.49038839      -1.46321504      -1.14719107       0.00000000
Si       1.85181462      -1.44241923       0.52528714       0.00000000
Si      -0.88769097       1.05396300      -3.07911407       0.00000000
Si      -1.96758765      -1.01977029       2.54447137       0.00000000
Si      -2.04211440      -2.63384865       0.83398620       0.00000000
Si       2.95259508      -1.17022473      -1.50641703       0.00000000
Si       2.87683029       1.21497336      -1.69920347       0.00000000
Si       0.23583033       1.21704219       3.69878230       0.00000000
