10
Lattice="16.28999089631971 0.0 0.0 0.0 16.28999089631971 0.0 0.0 0.0 34.395419527814205" Properties=species:S:1:pos:R:3:initial_magmoms:R:1 pbc="T T T"
Si       0.77853168       0.31033102      -2.29114897       0.00000000
Si      -2.44291356       0.13551977       0.07068263       0.00000000
Si       1.14761421       1.37932480       1.69947863       0.00000000
Si       0.43766343      -2.12868502       1.36233454       0.00000000
Si       3.52917053      -0.09225353      -0.11732284       0.00000000
Si       2.57323749      -1.25632294      -2.40011372       0.00000000
Si      -0.18287154      -1.28026924       3.52384710       0.00000000
Si      -1.10547198      -0.52182313      -3.67910811       0.00000000
Si       0.04683375       1.10713030       3.73118280       0.00000000
Si      -2.07759402      -2.37217165      -2.36210676       0.00000000
