10
Lattice="16.28999089631971 0.0 0.0 0.0 16.28999089631971 0.0 0.0 0.0 34.395419527814205" Properties=species:S:1:pos:R:3:initial_magmoms:R:1 pbc="T T T"
Si       1.13478439       1.17810909       1.65875443       0.00000000
Si       0.08825922      -2.31365960       0.34006770       0.00000000
Si      -2.33984673       0.13913289       0.13730659       0.00000000
Si       1.06297914      -0.03575655      -2.09365036       0.00000000
Si      -2.90486538      -1.18164239      -1.71055396       0.00000000
Si      -1.52529786      -3.04363079      -1.20373717       0.00000000
Si      -2.85229755      -1.49323588       1.80906250       0.00000000
Si      -0.88308090      -2.67189299       2.41442222       0.00000000
Si       0.43771230       3.40851960       1.60000702       0.00000000
Si       3.42325295       0.61986708       1.55979875       0.00000000
