10
Lattice="16.28999089631971 0.0 0.0 0.0 16.28999089631971 0.0 0.0 0.0 34.395419527814205" Properties=species:S:1:pos:R:3:initial_magmoms:R:1 pbc="T T T"
Si       2.00245218      -0.97930171      -0.38546968       0.00000000
Si      -0.18236655       2.37934509      -0.03484258       0.00000000
Si      -1.45798758      -1.00873774      -1.60747083       0.00000000
Si       0.82574729      -0.86751973       2.14840346       0.00000000
Si       2.97951335      -0.09211995      -2.24333931       0.00000000
Si       0.55987771       2.84126433      -2.36313862       0.00000000
Si      -0.48664746      -0.65050435      -3.68182535       0.00000000
Si      -2.52920169       2.81738319      -0.17496960       0.00000000
Si       1.96985426       0.94282447       3.28484836       0.00000000
Si      -0.94698657      -1.96851196       3.30926225       0.00000000
