10
Lattice="16.28999089631971 0.0 0.0 0.0 16.28999089631971 0.0 0.0 0.0 34.395419527814205" Properties=species:S:1:pos:R:3:initial_magmoms:R:1 pbc="T T T"
Si       1.99429089       1.22642523       0.31984318       0.00000000
Si       0.03056004      -1.24905204       2.03387108       0.00000000
Si      -1.71372429       1.68871914       0.06480101       0.00000000
Si       0.33257664      -0.47464173      -2.34759188       0.00000000
Si       0.56068551       1.79494623      -3.03082288       0.00000000
Si      -1.56108699       2.38479084      -2.21145473       0.00000000
Si       1.20102490       2.88756540       1.83740434       0.00000000
Si       2.58426908       2.01121227      -1.86636530       0.00000000
Si      -1.16354583       3.18049218       1.93023763       0.00000000
Si      -2.15511813      -1.48447512       2.93207357       0.00000000
