10
Lattice="16.28999089631971 0.0 0.0 0.0 16.28999089631971 0.0 0.0 0.0 34.395419527814205" Properties=species:S:1:pos:R:3:initial_magmoms:R:1 pbc="T T T"
Si       1.96084522       0.64659897      -1.07355043       0.00000000
Si       0.84538095      -1.11019608       1.88132731       0.00000000
Si      -1.52745370       1.45792242       1.08235567       0.00000000
Si      -1.05201376      -1.11509937      -1.85711292       0.00000000
Si      -3.28279894      -0.46089297      -1.43680066       0.00000000
Si      -0.61580014      -2.97246888       2.04945222       0.00000000
Si      -3.41473165       1.67545908      -0.28768345       0.00000000
Si       3.00175993      -1.44860454      -1.86571178       0.00000000
Si       3.57296878       1.30178277       0.49581025       0.00000000
Si       1.51415713       2.50885548      -2.52944057       0.00000000
