10
Lattice="16.28999089631971 0.0 0.0 0.0 16.28999089631971 0.0 0.0 0.0 34.395419527814205" Properties=species:S:1:pos:R:3:initial_magmoms:R:1 pbc="T T T"
Si      -1.28723580      -1.96584462      -0.45058025       0.00000000
Si      -0.62053497       0.84841578       2.16151256       0.00000000
Si       2.09604312      -1.13502204       0.62761357       0.00000000
Si      -0.43766343       2.12868502      -1.36233454       0.00000000
Si       1.20952877      -0.49119237       2.81719281       0.00000000
Si       0.70995078       3.50800982       0.33714409       0.00000000
Si       1.69168296      -3.38734260      -0.08777716       0.00000000
Si       2.81356712       2.47390921       0.86676506       0.00000000
Si      -2.88057699       2.26420479      -1.29165191       0.00000000
Si      -0.48220029      -3.83649048       0.77599549       0.00000000
