10
Lattice="16.28999089631971 0.0 0.0 0.0 16.28999089631971 0.0 0.0 0.0 34.395419527814205" Properties=species:S:1:pos:R:3:initial_magmoms:R:1 pbc="T T T"
Si      -0.39894210      -0.14799465      -2.29273116       0.00000000
Si       1.98571842      -0.23460858       1.20280849       0.00000000
Si      -0.03510495       2.31932037       0.38894362       0.00000000
Si      -1.69953570      -1.18864872       1.14302922       0.00000000
Si       0.86905521       0.30845115       3.17163780       0.00000000
Si      -0.51051231       2.17043955       2.66482101       0.00000000
Si       1.72131543       0.37913346      -3.08262241       0.00000000
Si      -1.94290830       1.57510358      -2.56658764       0.00000000
Si      -1.20410793      -3.42212175       0.39272712       0.00000000
Si      -3.69146061      -0.24708672       0.30137283       0.00000000
