10
Lattice="16.28999089631971 0.0 0.0 0.0 16.28999089631971 0.0 0.0 0.0 34.395419527814205" Properties=species:S:1:pos:R:3:initial_magmoms:R:1 pbc="T T T"
Si      -1.49695198      -0.85856445       1.68278794       0.00000000
Si      -1.01771647       1.81812690      -1.35765676       0.00000000
Si       1.10769263       1.69499079       1.69101533       0.00000000
Si      -0.81888073      -2.03672241      -1.66043981       0.00000000
Si       1.33397865       2.81131191      -1.42486545       0.00000000
Si       1.83620098       1.05322995      -2.99250636       0.00000000
Si      -3.16967434      -1.94295717       0.49606447       0.00000000
Si      -0.14124931      -2.19307383       3.06391958       0.00000000
Si       2.90405935       2.48878620       0.37556655       0.00000000
Si       3.11815882      -1.11151557      -2.01474722       0.00000000
