10
Lattice="16.28999089631971 0.0 0.0 0.0 16.28999089631971 0.0 0.0 0.0 34.395419527814205" Properties=species:S:1:pos:R:3:initial_magmoms:R:1 pbc="T T T"
Si       0.12735522       1.96937955       1.27318156       0.00000000
Si       1.65925053      -1.28642130       1.10199546       0.00000000
Si       0.35232012       0.30022470      -2.36110929       0.00000000
Si      -2.19744674      -0.62309250       0.78418161       0.00000000
Si       2.14179291      -2.90734146      -0.49543190       0.00000000
Si      -2.11783751       2.78374923       1.27730901       0.00000000
Si      -1.42569265       1.68521679      -3.08048989       0.00000000
Si      -3.58665794       1.29060783       0.14552710       0.00000000
Si       0.50823171       1.38614868       3.52904081       0.00000000
Si      -2.09703518      -0.94354938       3.16211027       0.00000000
