10
Lattice="16.28999089631971 0.0 0.0 0.0 16.28999089631971 0.0 0.0 0.0 34.395419527814205" Properties=species:S:1:pos:R:3:initial_magmoms:R:1 pbc="T T T"
Si       1.35084274       1.30249953       1.51947839       0.00000000
Si      -1.32583624      -1.49781663       1.38743774       0.00000000
Si      -1.98308887       0.96964596      -1.07850338       0.00000000
Si       1.48505768      -0.91302192      -1.99803104       0.00000000
Si      -2.88768886      -1.14730470      -1.92390887       0.00000000
Si       2.03968494       3.16146546       0.25518537       0.00000000
Si       1.76506812       2.54000196      -2.22940915       0.00000000
Si      -2.48788339      -2.92022685      -0.14968895       0.00000000
Si       1.47036410      -3.27955167      -1.54531827       0.00000000
Si      -0.01930528       2.56694562       2.95496859       0.00000000
