10
Lattice="16.28999089631971 0.0 0.0 0.0 16.28999089631971 0.0 0.0 0.0 34.395419527814205" Properties=species:S:1:pos:R:3:initial_magmoms:R:1 pbc="T T T"
Si      -1.77273386      -1.10099223       1.16085878       0.00000000
Si       1.14410697       1.81034421       1.13644490       0.00000000
Si       1.71406638      -1.75407462      -0.14716804       0.00000000
Si      -0.82574729       0.86751973      -2.14840346       0.00000000
Si       1.17670489      -0.11178198      -2.53387315       0.00000000
Si      -0.34492384      -2.34859446       2.55261518       0.00000000
Si       2.38508406       0.37761849       2.54691242       0.00000000
Si       1.43944956      -2.37553812      -2.63176256       0.00000000
Si       1.02522418      -3.61304055       1.11712498       0.00000000
Si       3.68896824      -0.95853618       1.07523822       0.00000000
