10
Lattice="16.28999089631971 0.0 0.0 0.0 16.28999089631971 0.0 0.0 0.0 34.395419527814205" Properties=species:S:1:pos:R:3:initial_magmoms:R:1 pbc="T T T"
Si      -0.68884220      -1.85896593       1.26429302       0.00000000
Si       1.97490186       0.79553844       1.22240626       0.00000000
Si      -1.71406638       1.75407462       0.14716804       0.00000000
Si      -0.27461682      -0.62146350      -2.48459453       0.00000000
Si      -0.53736149       1.64229264      -2.38670511       0.00000000
Si      -2.05899022      -0.59451984       2.69978322       0.00000000
Si       0.67101768       2.13169311       2.69408046       0.00000000
Si       2.00564109      -1.07952201      -2.67830964       0.00000000
Si      -2.03968494      -3.16146546      -0.25518537       0.00000000
Si      -3.48680024       0.65308239       1.30802682       0.00000000
