10
Lattice="16.28999089631971 0.0 0.0 0.0 16.28999089631971 0.0 0.0 0.0 34.395419527814205" Properties=species:S:1:pos:R:3:initial_magmoms:R:1 pbc="T T T"
Si      -1.35644499       1.35358556       1.36199058       0.00000000
Si       1.36643778       1.35264015      -1.35977552       0.00000000
Si       1.35742941      -1.36169739       1.36040839       0.00000000
Si      -1.36357012      -1.37357280      -1.35407275       0.00000000
Si      -2.71129850       2.70710871       0.00237329       0.00000000
Si       2.71511946       2.70950171       0.00189175       0.00000000
Si       0.00159479       2.71104437       2.71775559       0.00000000
Si      -2.71204784      -2.71740006       0.00141021       0.00000000
Si       0.00657790      -2.63801889      -2.78956295       0.00000000
Si      -2.71372571      -0.00418653       2.71775559       0.00000000
