10
Lattice="16.28999089631971 0.0 0.0 0.0 16.28999089631971 0.0 0.0 0.0 34.35334932831803" Properties=species:S:1:pos:R:3:initial_magmoms:R:1 pbc="T T T"
Si      -0.09510102      -0.75880449      -2.18999289       0.00000000
Si      -2.05903971       0.07524351       1.06636291       0.00000000
Si       0.71395812       2.28848436      -0.03483432       0.00000000
Si       1.54352637      -1.43606124       1.14829570       0.00000000
Si      -1.23281091       0.71666226       3.17823624       0.00000000
Si       1.16102088       1.12192488       3.10533839       0.00000000
Si       2.69996976       2.05674282       1.33772017       0.00000000
Si       2.22042474      -0.49609566      -2.90986773       0.00000000
Si      -3.02965004       2.11216140       0.43110042       0.00000000
Si       3.58158456      -0.19961766       1.05196885       0.00000000
