10
Lattice="16.28999089631971 0.0 0.0 0.0 16.28999089631971 0.0 0.0 0.0 34.35334932831803" Properties=species:S:1:pos:R:3:initial_magmoms:R:1 pbc="T T T"
Si      -1.16297568       1.44454833      -1.38264407       0.00000000
Si      -1.37204154      -1.33683885       1.35175352       0.00000000
Si       1.34601012       1.38070782       1.35508580       0.00000000
Si       1.40079339      -1.31456716      -1.42555486       0.00000000
Si      -2.72137482      -2.68026605      -0.03861662       0.00000000
Si      -0.01267362      -2.69310551       2.71183773       0.00000000
Si       2.71914309      -2.69188918      -0.01456926       0.00000000
Si       2.70277164       0.02257794       2.71228433       0.00000000
Si       2.69255781       2.73691548      -0.00229481       0.00000000
Si      -2.72723922       0.02332728       2.71262786       0.00000000
