10
Lattice="16.28999089631971 0.0 0.0 0.0 16.28999089631971 0.0 0.0 0.0 34.35334932831803" Properties=species:S:1:pos:R:3:initial_magmoms:R:1 pbc="T T T"
Si      -1.35808101       1.35793654      -1.35816042       0.00000000
Si       1.35764118      -1.35969062      -1.35805736       0.00000000
Si       1.35314514       1.36564171       1.37258884       0.00000000
Si      -1.36673100      -1.37360228       1.38430334       0.00000000
Si       2.61109152      -0.10319405       2.68258584       0.00000000
Si      -2.71402803      -2.71420412       0.00130543       0.00000000
Si       0.00026064       2.71394058      -2.71590861       0.00000000
Si       2.71448415      -0.00033551      -2.71553072       0.00000000
Si       2.71547784       2.71552071      -0.00144284       0.00000000
Si      -0.00016290      -2.71555619      -2.71563378       0.00000000
