10
Lattice="16.28999089631971 0.0 0.0 0.0 16.28999089631971 0.0 0.0 0.0 34.35334932831803" Properties=species:S:1:pos:R:3:initial_magmoms:R:1 pbc="T T T"
Si       1.56149424      -1.63295148       0.63440366       0.00000000
Si      -2.02435830      -0.76262565      -1.05626302       0.00000000
Si      -0.72599643       0.43904596       2.38484520       0.00000000
Si       1.92445173       0.73539853      -1.57503324       0.00000000
Si       0.01107720      -0.16634649      -2.64630868       0.00000000
Si       2.23912566      -1.09819965       2.84414973       0.00000000
Si       3.46499703      -1.06148199      -1.21961329       0.00000000
Si       1.25279874       0.86014898       3.50978060       0.00000000
Si      -1.96136487      -1.52379219       2.93415556       0.00000000
Si       0.56870019      -3.74066571       0.74220453       0.00000000
