10
Lattice="16.28999089631971 0.0 0.0 0.0 16.28999089631971 0.0 0.0 0.0 34.35334932831803" Properties=species:S:1:pos:R:3:initial_magmoms:R:1 pbc="T T T"
Si      -1.13357223      -1.56615970       1.36798549       0.00000000
Si       1.28163204       1.43769024       1.38523088       0.00000000
Si      -1.34918667       1.37775933      -1.44682647       0.00000000
Si       1.37300265      -1.33277449      -1.47159525       0.00000000
Si       0.59551353      -3.39788942       1.42844742       0.00000000
Si       2.63094903      -2.80161026      -0.16159825       0.00000000
Si      -2.74323600      -2.79142901       0.02528408       0.00000000
Si      -2.69715159       0.01591533      -2.84366879       0.00000000
Si       0.01985751      -2.69841621      -2.84418409       0.00000000
Si       2.80424205       2.75687073       0.05410656       0.00000000
