10
Lattice="16.28999089631971 0.0 0.0 0.0 16.28999089631971 0.0 0.0 0.0 34.35334932831803" Properties=species:S:1:pos:R:3:initial_magmoms:R:1 pbc="T T T"
Si       1.97879517       0.42110302       1.12493541       0.00000000
Si      -1.66452849       1.57273434       0.52223991       0.00000000
Si      -1.23536844      -1.96283816       0.54931036       0.00000000
Si       0.72599643      -0.43904596      -2.38484520       0.00000000
Si       2.96512209      -1.53724562       0.45930454       0.00000000
Si      -2.81305494      -1.48207139      -1.19697442       0.00000000
Si       2.28749067      -2.07199745      -1.75044154       0.00000000
Si      -3.38214609       0.80354986      -1.04176590       0.00000000
Si      -0.69147792       3.68927775       0.19090167       0.00000000
Si       1.53161838       0.79044130       3.38542141       0.00000000
