10
Lattice="16.28999089631971 0.0 0.0 0.0 16.28999089631971 0.0 0.0 0.0 34.35334932831803" Properties=species:S:1:pos:R:3:initial_magmoms:R:1 pbc="T T T"
Si       0.11956860       0.79277077       2.19078302       0.00000000
Si       2.10999483       0.85244104      -0.57651823       0.00000000
Si      -1.66700457       1.35408996      -1.09975439       0.00000000
Si      -0.34324659      -2.38883795       0.11851912       0.00000000
Si      -2.04551901       0.27357426       2.92759407       0.00000000
Si      -3.50531478      -0.06567313      -0.92606376       0.00000000
Si       3.72892761      -0.22025546       0.77003076       0.00000000
Si       2.55717162       0.48310276      -2.83700423       0.00000000
Si       1.70062713      -3.46835996      -0.46074738       0.00000000
Si       0.55379484       3.11446881       2.31266877       0.00000000
