10
Lattice="16.28999089631971 0.0 0.0 0.0 16.28999089631971 0.0 0.0 0.0 34.35334932831803" Properties=species:S:1:pos:R:3:initial_magmoms:R:1 pbc="T T T"
Si      -1.29248118      -1.38310245      -1.34752947       0.00000000
Si       1.75687650       0.86239260      -1.26097337       0.00000000
Si       1.22113098      -1.47642786       1.38133521       0.00000000
Si      -1.49325543       1.24308990       1.36952452       0.00000000
Si       0.63047187       0.91430883      -3.40275410       0.00000000
Si      -3.27173247       0.14056641      -1.46412480       0.00000000
Si       3.37856229      -0.95171067      -1.22217674       0.00000000
Si       2.47305006      -2.82273120      -0.07761800       0.00000000
Si       2.58918147      -0.12160485       2.73596754       0.00000000
Si      -0.12509091       2.59540425       2.73655155       0.00000000
