10
Lattice="16.28999089631971 0.0 0.0 0.0 16.28999089631971 0.0 0.0 0.0 34.35334932831803" Properties=species:S:1:pos:R:3:initial_magmoms:R:1 pbc="T T T"
Si       1.35567009       1.35597960      -1.35778254       0.00000000
Si       1.35796698      -1.35697329       1.35692370       0.00000000
Si      -1.35786924      -1.35788553      -1.35651146       0.00000000
Si      -1.35739683       1.35819504       1.35709547       0.00000000
Si      -2.71168227      -0.00465894      -2.71443141       0.00000000
Si       2.71375110       0.00055386       2.71357258       0.00000000
Si       0.00146610      -2.71272483      -2.71480930       0.00000000
Si      -2.71471221       0.00245979       2.71395047       0.00000000
Si      -2.71474479      -2.71399545       0.00006871       0.00000000
Si       2.71485882      -2.71409319      -0.00048095       0.00000000
