10
Lattice="16.28999089631971 0.0 0.0 0.0 16.28999089631971 0.0 0.0 0.0 34.35334932831803" Properties=species:S:1:pos:R:3:initial_magmoms:R:1 pbc="T T T"
Si       1.83831021       1.41976309      -0.17369063       0.00000000
Si       0.77589270      -1.80230835      -1.28546870       0.00000000
Si      -0.18495666      -0.42987585       2.32950192       0.00000000
Si      -2.23167950       0.28229593      -0.77954664       0.00000000
Si      -1.34666172       1.30739467      -2.86036452       0.00000000
Si       1.08660816      -3.25312833       0.44274621       0.00000000
Si      -0.53476812      -2.71598187       2.08775727       0.00000000
Si       1.11501792       3.19002997       1.26073427       0.00000000
Si       3.50531478       0.06567313       0.92606376       0.00000000
Si      -3.19310031       1.57213975       1.00157246       0.00000000
