10
Lattice="16.28999089631971 0.0 0.0 0.0 16.28999089631971 0.0 0.0 0.0 34.35334932831803" Properties=species:S:1:pos:R:3:initial_magmoms:R:1 pbc="T T T"
Si       1.34837217       1.33788141      -1.36628500       0.00000000
Si      -1.36021500       1.35267273       1.35764512       0.00000000
Si       1.35638685      -1.35995436       1.35644276       0.00000000
Si      -1.37138994      -1.37161800      -1.36170569       0.00000000
Si       2.49377094      -0.25407513      -2.74752401       0.00000000
Si      -2.67583287       0.06152733      -2.72237735       0.00000000
Si      -0.00131949       2.71107954       2.71463753       0.00000000
Si      -2.71856154       2.70718623      -0.00188944       0.00000000
Si       2.71523349       2.71070487      -0.00425982       0.00000000
Si       2.71334385      -0.00356751       2.71453447       0.00000000
