10
Lattice="16.28999089631971 0.0 0.0 0.0 16.28999089631971 0.0 0.0 0.0 34.35334932831803" Properties=species:S:1:pos:R:3:initial_magmoms:R:1 pbc="T T T"
Si      -1.35610992      -1.35679410      -1.35788560       0.00000000
Si      -1.35523026       1.35984033       1.35939715       0.00000000
Si       1.35863487       1.35848826      -1.35754206       0.00000000
Si       1.35902583      -1.35858600       1.35802301       0.00000000
Si      -2.71316140       2.71467963      -0.00044659       0.00000000
Si       0.00094482      -2.71402803      -2.71494671       0.00000000
Si      -2.71440433       0.00083079      -2.71460318       0.00000000
Si      -2.71352630      -2.71581993      -0.00099625       0.00000000
Si       2.71709055      -2.71324611      -0.00109931       0.00000000
Si       0.00156384       2.71560816      -2.71501542       0.00000000
