10
Lattice="16.28999089631971 0.0 0.0 0.0 16.28999089631971 0.0 0.0 0.0 34.35334932831803" Properties=species:S:1:pos:R:3:initial_magmoms:R:1 pbc="T T T"
Si      -0.96438429      -1.62429219      -1.53559557       0.00000000
Si       1.74623913       0.93597453      -1.54937127       0.00000000
Si       0.44804016      -1.77433938       1.76861447       0.00000000
Si      -1.81315845       1.77903090       0.17527089       0.00000000
Si      -2.61905733      -2.67017535      -0.06382856       0.00000000
Si      -2.14493688      -0.30138129      -3.10746830       0.00000000
Si       2.82005964      -1.91399355       1.83388587       0.00000000
Si      -3.36067587       1.07168652      -1.62244089       0.00000000
Si      -2.00125908       2.10481461       2.64902260       0.00000000
Si       0.56552364       2.42525520      -3.07246222       0.00000000
