10
Lattice="16.28999089631971 0.0 0.0 0.0 16.28999089631971 0.0 0.0 0.0 34.35334932831803" Properties=species:S:1:pos:R:3:initial_magmoms:R:1 pbc="T T T"
Si      -2.29436505       0.18937125       0.50705572       0.00000000
Si       0.74243304      -2.22894441       0.27297187       0.00000000
Si       1.71012420       1.00365948       1.31587143       0.00000000
Si       0.39765519       0.62183817      -2.31995168       0.00000000
Si      -0.90231939      -2.99806766      -1.25118404       0.00000000
Si       2.90752065      -1.70974790      -0.46383918       0.00000000
Si       3.34174689       0.61195014      -0.34195343       0.00000000
Si      -2.86121144      -1.81079477      -0.61169608       0.00000000
Si      -2.10289239       0.14076189       2.82728223       0.00000000
Si       2.32293771       1.87002684      -2.05653005       0.00000000
