10
Lattice="16.28999089631971 0.0 0.0 0.0 16.28999089631971 0.0 0.0 0.0 34.35334932831803" Properties=species:S:1:pos:R:3:initial_magmoms:R:1 pbc="T T T"
Si      -1.34837217      -1.33788141       1.36628500       0.00000000
Si       1.36686132       1.37282346       1.36202518       0.00000000
Si      -1.20614418       1.45202544      -1.44442517       0.00000000
Si       1.14539877      -1.59195654      -1.38123902       0.00000000
Si       0.75551391       2.15835984      -2.58722639       0.00000000
Si       2.28266883       0.22599117      -2.59046213       0.00000000
Si      -2.55883320      -0.01177767      -2.75723369       0.00000000
Si       0.00801468      -2.69783577       2.72272775       0.00000000
Si      -2.71976211      -2.70949941       0.00457930       0.00000000
Si      -2.70858717       0.01479132       2.72393012       0.00000000
