10
Lattice="16.28999089631971 0.0 0.0 0.0 16.28999089631971 0.0 0.0 0.0 34.35334932831803" Properties=species:S:1:pos:R:3:initial_magmoms:R:1 pbc="T T T"
Si      -1.34729703      -1.34060184      -1.38299791       0.00000000
Si       1.36673100       1.37360228      -1.38430334       0.00000000
Si      -1.39636251       1.28058948       1.48516483       0.00000000
Si       1.31533605      -1.32672276       1.53892785       0.00000000
Si       1.94238702       0.67412907       2.88832817       0.00000000
Si       0.21330126       2.50585879       2.82786624       0.00000000
Si      -2.69512674      -2.69620677       0.00628667       0.00000000
Si       2.72463282      -2.69153154       0.01260769       0.00000000
Si      -2.69162602       2.73369725       0.00144284       0.00000000
Si       0.00793323      -2.70044217      -2.74239506       0.00000000
