10
Lattice="16.28999089631971 0.0 0.0 0.0 16.28999089631971 0.0 0.0 0.0 34.35334932831803" Properties=species:S:1:pos:R:3:initial_magmoms:R:1 pbc="T T T"
Si       1.35889551       1.34833959      -1.40062119       0.00000000
Si      -1.35767376      -1.36749663      -1.39697973       0.00000000
Si       1.18071549      -1.48928067       1.52309095       0.00000000
Si      -1.40929677       1.36480878       1.52632016       0.00000000
Si       2.71036278       2.68227882      -0.04239206       0.00000000
Si      -2.72463282       2.69153154      -0.01260769       0.00000000
Si       2.69505018      -2.72792340      -0.00601184       0.00000000
Si      -2.71046052      -2.72663649      -0.03500608       0.00000000
Si      -0.00026064       2.70544320      -2.75496839       0.00000000
Si       2.71373481      -0.00706986      -2.75610205       0.00000000
