10
Lattice="16.28999089631971 0.0 0.0 0.0 16.28999089631971 0.0 0.0 0.0 34.35334932831803" Properties=species:S:1:pos:R:3:initial_magmoms:R:1 pbc="T T T"
Si      -1.31533605       1.32672276      -1.53892785       0.00000000
Si       1.40929677      -1.36480878      -1.52632016       0.00000000
Si       0.62705097       2.00085183       1.34940032       0.00000000
Si      -0.96938532      -2.01103308       1.72141294       0.00000000
Si      -2.51690274      -2.71837746      -0.07629883       0.00000000
Si       2.66248647       2.59713099      -0.24064535       0.00000000
Si      -2.71169856       2.60731224      -0.05376302       0.00000000
Si       2.59001226      -2.85408945      -0.00322922       0.00000000
Si      -2.66263308      -0.01387908      -2.92192576       0.00000000
Si       0.05139495       2.70032504      -2.92323119       0.00000000
