10
Lattice="16.28999089631971 0.0 0.0 0.0 16.28999089631971 0.0 0.0 0.0 34.35334932831803" Properties=species:S:1:pos:R:3:initial_magmoms:R:1 pbc="T T T"
Si       1.22526864       1.17108810       1.69610280       0.00000000
Si       1.17907020      -1.12712139      -1.77799294       0.00000000
Si      -0.26956692       2.15624214      -1.06048849       0.00000000
Si      -1.55854249      -1.39015928       1.57829479       0.00000000
Si       2.56718997       2.55678066       0.34758738       0.00000000
Si      -2.45508545      -1.82203976      -2.08322262       0.00000000
Si      -2.40477378       2.43830349      -1.85446354       0.00000000
Si       2.38824432      -0.27346023       3.07874687       0.00000000
Si      -2.93610862       2.58455511       0.42582207       0.00000000
Si      -0.32734755       2.45641797       3.06435624       0.00000000
