10
Lattice="16.28999089631971 0.0 0.0 0.0 16.28999089631971 0.0 0.0 0.0 34.35334932831803" Properties=species:S:1:pos:R:3:initial_magmoms:R:1 pbc="T T T"
Si      -1.35801585       1.35529542      -1.35767948       0.00000000
Si       1.35531171      -1.36000486      -1.35730159       0.00000000
Si      -1.36233270      -1.34987899       1.37403168       0.00000000
Si       1.34913780       1.35861858       1.38141766       0.00000000
Si       2.71498914      -2.71268630       0.00206120       0.00000000
Si       2.71368594       2.71407690       0.00281698       0.00000000
Si      -0.00013032       2.71360449      -2.71446577       0.00000000
Si      -2.71445157       2.71371852       0.00779821       0.00000000
Si       2.71435383      -0.00100998      -2.71391611       0.00000000
Si      -2.71521720      -0.00158013      -2.71446577       0.00000000
