10
Lattice="16.28999089631971 0.0 0.0 0.0 16.28999089631971 0.0 0.0 0.0 34.35334932831803" Properties=species:S:1:pos:R:3:initial_magmoms:R:1 pbc="T T T"
Si      -1.35967743       1.35268145      -1.35936279       0.00000000
Si       1.35672894      -1.36293227      -1.35901926       0.00000000
Si      -1.36220238      -1.38568940       1.35390061       0.00000000
Si       1.36361961       1.36665989       1.37571500       0.00000000
Si       2.59735905      -0.14613443       2.75252930       0.00000000
Si       2.71722087       2.71016135      -0.00010306       0.00000000
Si      -0.00063531       2.71167632      -2.71597732       0.00000000
Si      -2.71498914       2.71268630      -0.00206120       0.00000000
Si       2.71489140      -0.00353057      -2.71656132       0.00000000
Si      -2.71598283      -0.00316991      -2.71614908       0.00000000
