10
Lattice="16.28999089631971 0.0 0.0 0.0 16.28999089631971 0.0 0.0 0.0 34.35334932831803" Properties=species:S:1:pos:R:3:initial_magmoms:R:1 pbc="T T T"
Si       0.74025018       1.66706973       1.47166395       0.00000000
Si      -1.89460845       1.30101714      -0.53165273       0.00000000
Si       1.14693003      -0.53558262      -2.00743909       0.00000000
Si      -0.14641452      -2.34693125       0.50557852       0.00000000
Si       0.30076227      -2.71626953      -1.75490748       0.00000000
Si      -2.72142369       1.17317322       1.68018890       0.00000000
Si      -0.06097347       0.85366116      -3.42661110       0.00000000
Si      -2.36951082       0.55190520      -2.68894121       0.00000000
Si       2.93034294       1.97692182       0.85230707       0.00000000
Si       0.47835585       0.79320897       3.59257222       0.00000000
