10
Lattice="16.28999089631971 0.0 0.0 0.0 16.28999089631971 0.0 0.0 0.0 34.35334932831803" Properties=species:S:1:pos:R:3:initial_magmoms:R:1 pbc="T T T"
Si       0.98632692      -1.95834863      -0.66563087       0.00000000
Si      -1.97879517      -0.42110302      -1.12493541       0.00000000
Si      -0.44717679       0.36933828       2.26048600       0.00000000
Si       0.84616776       2.18068691      -0.25253161       0.00000000
Si      -0.30076227       2.71626953       1.75490748       0.00000000
Si       3.25428588      -1.59060188      -0.54377947       0.00000000
Si       0.30869550      -2.49310046      -2.87537695       0.00000000
Si      -1.25279874      -0.86014898      -3.50978060       0.00000000
Si      -2.55717162      -0.48310276       2.83700423       0.00000000
Si       1.17175599      -0.70335822       3.60703499       0.00000000
