10
Lattice="16.28999089631971 0.0 0.0 0.0 16.28999089631971 0.0 0.0 0.0 34.35334932831803" Properties=species:S:1:pos:R:3:initial_magmoms:R:1 pbc="T T T"
Si       1.35694071      -1.35428544       1.35967197       0.00000000
Si      -1.36805049      -1.35482301      -1.35463233       0.00000000
Si      -1.36039419       1.35767376       1.35977503       0.00000000
Si       1.36099692       1.37529954      -1.36087778       0.00000000
Si      -2.58918147       0.12160485      -2.73596754       0.00000000
Si       2.71396287      -2.71164969      -0.00123672       0.00000000
Si      -2.71459818      -2.71103067       0.00274827       0.00000000
Si       2.68089417       0.00558747      -2.74468299       0.00000000
Si      -0.00120546      -2.71239903       2.71707662       0.00000000
Si       2.71371852       2.71630863       0.00446594       0.00000000
