10
Lattice="16.28999089631971 0.0 0.0 0.0 16.28999089631971 0.0 0.0 0.0 34.35334932831803" Properties=species:S:1:pos:R:3:initial_magmoms:R:1 pbc="T T T"
Si       0.60150825      -1.34078103       1.82876722       0.00000000
Si      -2.37201948       0.13965417      -0.06527140       0.00000000
Si       0.87250869      -1.31359302      -1.96508139       0.00000000
Si       0.24216714       1.92498930       2.09809763       0.00000000
Si      -0.12136050      -3.39237621       0.86371239       0.00000000
Si      -1.18499976      -0.76538565       3.28177730       0.00000000
Si      -2.78492211       0.66883482       2.29439278       0.00000000
Si      -2.82005964       1.91399355      -1.83388587       0.00000000
Si       1.87618446       0.37219392      -3.40218585       0.00000000
Si       2.76610716       2.14298208      -1.79410467       0.00000000
