10
Lattice="16.28999089631971 0.0 0.0 0.0 16.28999089631971 0.0 0.0 0.0 34.35334932831803" Properties=species:S:1:pos:R:3:initial_magmoms:R:1 pbc="T T T"
Si      -0.91914696      -1.83107745      -1.16427551       0.00000000
Si      -1.44280530       1.25131635       1.46034795       0.00000000
Si       1.27415493      -1.43977536       1.47178763       0.00000000
Si       1.55256732       1.26869778      -1.43651157       0.00000000
Si      -2.67602346      -2.69347005       0.09669786       0.00000000
Si       2.59405218      -2.80948743       0.08798241       0.00000000
Si       2.73411360       2.68951158       0.09163418       0.00000000
Si      -3.02243031       2.36692071       0.08778660       0.00000000
Si      -0.08884566       2.61865008       2.83180657       0.00000000
Si       2.62687653      -0.09876627       2.83713134       0.00000000
