10
Lattice="16.28999089631971 0.0 0.0 0.0 16.28999089631971 0.0 0.0 0.0 34.35334932831803" Properties=species:S:1:pos:R:3:initial_magmoms:R:1 pbc="T T T"
Si      -1.46522034       1.24333425       1.35496556       0.00000000
Si       1.34169327       1.36977723      -1.37203919       0.00000000
Si      -1.37904624      -1.34263809      -1.36668006       0.00000000
Si       1.26324063      -1.44484155       1.51467437       0.00000000
Si      -2.44195245      -0.52235514       2.75644558       0.00000000
Si       2.68695405       2.70472644      -0.00144284       0.00000000
Si       2.68918578      -2.70313002       0.01047778       0.00000000
Si       2.69397504       0.01327635      -2.72879112       0.00000000
Si      -0.01844028      -2.70286938      -2.72796664       0.00000000
Si      -0.42813378      -2.17593675       3.13924517       0.00000000
