10
Lattice="16.28999089631971 0.0 0.0 0.0 16.28999089631971 0.0 0.0 0.0 34.35334932831803" Properties=species:S:1:pos:R:3:initial_magmoms:R:1 pbc="T T T"
Si       1.82421936       1.38811977      -0.37369594       0.00000000
Si       0.70724664      -2.16461520       0.49733372       0.00000000
Si      -1.12335840      -0.34469640      -2.07405027       0.00000000
Si      -1.25833734       0.84308895       1.94014084       0.00000000
Si      -3.37993065       0.14836932       1.17862972       0.00000000
Si       2.92835556       1.49770260       1.69997644       0.00000000
Si      -1.22049567      -3.34190979       1.09896426       0.00000000
Si       1.01605617       3.39887592      -1.24328276       0.00000000
Si       1.98132012      -2.11919868       2.44417346       0.00000000
Si       3.30572970       0.68059620      -2.11884706       0.00000000
