10
Lattice="16.28999089631971 0.0 0.0 0.0 16.28999089631971 0.0 0.0 0.0 34.35334932831803" Properties=species:S:1:pos:R:3:initial_magmoms:R:1 pbc="T T T"
Si       0.97388136       1.69601706       1.26506761       0.00000000
Si      -0.22107159       1.47242052      -1.85261880       0.00000000
Si      -1.80773388      -1.06924628       1.12777093       0.00000000
Si       1.86945669      -1.63491001      -0.16160859       0.00000000
Si       2.25416298       0.34243209       2.62692445       0.00000000
Si      -0.49436892      -2.37776075       2.59871003       0.00000000
Si       1.91713752       0.97844256      -2.84168664       0.00000000
Si      -2.39080185       0.99727380      -2.65851448       0.00000000
Si       0.97901271      -3.59162639       1.15156064       0.00000000
Si       2.34106035       3.18156732      -0.03466083       0.00000000
