10
Lattice="16.28999089631971 0.0 0.0 0.0 16.28999089631971 0.0 0.0 0.0 34.35334932831803" Properties=species:S:1:pos:R:3:initial_magmoms:R:1 pbc="T T T"
Si      -1.32382314       1.33775109      -1.48135160       0.00000000
Si       1.37386602      -1.40282964      -1.48172949       0.00000000
Si      -1.78310340      -0.72132120       1.53964927       0.00000000
Si       1.83629025       1.11666321       1.27193347       0.00000000
Si      -2.66328468      -2.67362883      -0.04208288       0.00000000
Si      -2.62780506       2.79029781       0.03321971       0.00000000
Si      -0.46558449      -0.46587771       3.83174037       0.00000000
Si       3.46710726      -0.88534521       1.53143882       0.00000000
Si       2.77719383      -2.73300588      -0.03084932       0.00000000
Si       0.02919168       2.67185322      -2.86709778       0.00000000
