10
Lattice="16.28999089631971 0.0 0.0 0.0 16.28999089631971 0.0 0.0 0.0 34.35334932831803" Properties=species:S:1:pos:R:3:initial_magmoms:R:1 pbc="T T T"
Si       0.24353550      -2.29633614      -0.25067653       0.00000000
Si       2.13319572       0.82917729      -0.49403579       0.00000000
Si      -0.52271352       0.93186945       2.13069898       0.00000000
Si      -1.60314777      -0.20507481      -1.90891363       0.00000000
Si      -2.07329346      -0.71516358       2.68705178       0.00000000
Si       1.31390271      -2.21587983      -2.37330246       0.00000000
Si      -1.00839987       3.15141453       1.53174800       0.00000000
Si      -3.12508989      -1.72076157       0.85934951       0.00000000
Si      -3.64948128      -0.23723127      -0.89452736       0.00000000
Si       1.89529167      -3.09312891       1.17107198       0.00000000
