10
Lattice="16.28999089631971 0.0 0.0 0.0 16.28999089631971 0.0 0.0 0.0 34.35334932831803" Properties=species:S:1:pos:R:3:initial_magmoms:R:1 pbc="T T T"
Si      -1.39862682       1.04783796      -1.55400898       0.00000000
Si      -1.42157943      -1.26407142       1.36258655       0.00000000
Si       1.35065277       1.49434686       1.32283283       0.00000000
Si       1.03972554      -1.79398512      -1.33009372       0.00000000
Si      -1.43821152      -0.95042376      -3.04449858       0.00000000
Si      -2.46306429       2.81411379      -0.16190743       0.00000000
Si       2.80255605      -2.50338204       0.10200721       0.00000000
Si      -0.03244968      -2.63379978       2.73111826       0.00000000
Si       2.69813388       0.10257813       2.73351612       0.00000000
Si      -2.74147668       0.10564065       2.74639177       0.00000000
