10
Lattice="16.28999089631971 0.0 0.0 0.0 16.28999089631971 0.0 0.0 0.0 34.35334932831803" Properties=species:S:1:pos:R:3:initial_magmoms:R:1 pbc="T T T"
Si       1.35725022      -1.35654975      -1.35692370       0.00000000
Si       1.35568638       1.35843939       1.35706112       0.00000000
Si      -1.35672894      -1.35770634       1.35788560       0.00000000
Si      -1.35767376       1.35760860      -1.35743900       0.00000000
Si      -0.00118917      -2.71290402      -2.71381305       0.00000000
Si      -2.71394658      -0.00190593      -2.71467189       0.00000000
Si       0.00340461       2.71494027       2.71381305       0.00000000
Si       2.71450097       2.71511946      -0.00006871       0.00000000
Si      -0.00037467       2.71463076      -2.71515283       0.00000000
Si      -2.71528236       2.71477737       0.00006871       0.00000000
