10
Lattice="16.28999089631971 0.0 0.0 0.0 16.28999089631971 0.0 0.0 0.0 34.35334932831803" Properties=species:S:1:pos:R:3:initial_magmoms:R:1 pbc="T T T"
Si      -1.35806472       1.35713619      -1.36506545       0.00000000
Si       1.35894831      -1.36054080      -1.36527157       0.00000000
Si      -1.36285398      -1.35927018       1.37420345       0.00000000
Si       1.36941463       1.35951453       1.38440640       0.00000000
Si       0.13407030      -2.66030361       2.73761994       0.00000000
Si      -2.71034649       2.71363707      -0.00831352       0.00000000
Si       2.71724435       2.71511946      -0.00487818       0.00000000
Si       2.71463795      -2.71806795      -0.00683632       0.00000000
Si      -2.71309950      -2.72130966      -0.00542783       0.00000000
Si      -2.71375110      -0.00130320      -2.72212657       0.00000000
