10
Lattice="16.28999089631971 0.0 0.0 0.0 16.28999089631971 0.0 0.0 0.0 34.35334932831803" Properties=species:S:1:pos:R:3:initial_magmoms:R:1 pbc="T T T"
Si       1.48336740       1.20003543       1.41549620       0.00000000
Si       1.42594515      -1.25828847      -1.50419659       0.00000000
Si      -1.26324063       1.44484155      -1.51467437       0.00000000
Si      -1.69137441      -0.73109520       1.62457080       0.00000000
Si      -2.58129711      -2.50188336       0.01648962       0.00000000
Si      -2.72846097       2.68817580      -0.15970881       0.00000000
Si       2.92286943      -2.55932190      -0.14078010       0.00000000
Si       2.73090447       2.76697053      -0.04397231       0.00000000
Si       0.07569963      -2.62032795      -2.88382787       0.00000000
Si      -2.64228687       0.10220346      -2.88135443       0.00000000
