10
Lattice="16.28999089631971 0.0 0.0 0.0 16.28999089631971 0.0 0.0 0.0 34.35334932831803" Properties=species:S:1:pos:R:3:initial_magmoms:R:1 pbc="T T T"
Si      -1.34596125       1.21919247      -1.46864086       0.00000000
Si      -0.90376920       0.11262906       2.15907486       0.00000000
Si       2.26960425       0.58977945      -0.10278528       0.00000000
Si      -0.29501190      -2.04949377      -1.12455752       0.00000000
Si      -0.14651226       3.16498410      -0.92104816       0.00000000
Si       2.05249113       2.93237919       0.04730459       0.00000000
Si      -0.16558785      -3.55757310       0.62519695       0.00000000
Si       2.69037495      -0.43772859      -2.38522308       0.00000000
Si      -3.50440254       1.18113903      -0.37417689       0.00000000
Si       1.84713939      -2.59599069      -1.94879789       0.00000000
