10
Lattice="16.28999089631971 0.0 0.0 0.0 16.28999089631971 0.0 0.0 0.0 34.35334932831803" Properties=species:S:1:pos:R:3:initial_magmoms:R:1 pbc="T T T"
Si      -2.26960425      -0.58977945       0.10278528       0.00000000
Si      -0.21711312       2.34259974       0.15008987       0.00000000
Si       1.33184664      -0.78035616       1.83313010       0.00000000
Si       0.42077070      -1.02750804      -2.28243780       0.00000000
Si      -2.41611651       2.57520465      -0.81826288       0.00000000
Si      -0.42246486      -3.18577014      -1.84601261       0.00000000
Si      -0.88624116       0.68018895      -3.64956446       0.00000000
Si      -2.56461615      -2.63927322      -1.02177224       0.00000000
Si       1.26769499       3.34865385      -1.41518702       0.00000000
Si       3.60892637      -0.79881273       1.08302430       0.00000000
