10
Lattice="16.28999089631971 0.0 0.0 0.0 16.28999089631971 0.0 0.0 0.0 34.35334932831803" Properties=species:S:1:pos:R:3:initial_magmoms:R:1 pbc="T T T"
Si       0.39008264       2.31264243       0.30220658       0.00000000
Si       0.70730921      -0.65399463       2.17841581       0.00000000
Si      -2.23469478      -0.91271241       0.26671955       0.00000000
Si       0.93759606      -0.90220536      -2.06879421       0.00000000
Si      -1.74900843      -3.13225749       0.86567053       0.00000000
Si      -0.48883032       0.83973321       3.59518308       0.00000000
Si      -0.80040915       2.82685257       2.31016097       0.00000000
Si       0.90690081      -3.23494965      -1.75906424       0.00000000
Si       2.71177091       2.54715327       0.98580426       0.00000000
Si      -0.31851837       3.47332122      -1.70083528       0.00000000
