10
Lattice="16.28999089631971 0.0 0.0 0.0 16.28999089631971 0.0 0.0 0.0 34.35334932831803" Properties=species:S:1:pos:R:3:initial_magmoms:R:1 pbc="T T T"
Si      -1.32273171       0.01469358      -1.94532820       0.00000000
Si       2.20478634      -0.66143916      -0.63625874       0.00000000
Si      -1.19982366      -0.66528360       2.06127082       0.00000000
Si      -0.13538619      -2.43155943       0.66916927       0.00000000
Si       1.01045241       2.52581337       0.27675074       0.00000000
Si       1.84933854       1.62940725       2.29066307       0.00000000
Si       2.37214980       1.04795199      -2.23475533       0.00000000
Si       0.33089877       0.89792109      -3.43915008       0.00000000
Si      -0.01827738       0.75553020       3.58941656       0.00000000
Si      -3.17218428       1.60412517      -1.62700989       0.00000000
