10
Lattice="16.28999089631971 0.0 0.0 0.0 16.28999089631971 0.0 0.0 0.0 34.35334932831803" Properties=species:S:1:pos:R:3:initial_magmoms:R:1 pbc="T T T"
Si      -0.83888613       0.89640612      -2.01391233       0.00000000
Si       0.85441050       1.90461051       1.22074386       0.00000000
Si      -1.86761592      -0.87387705       1.29875349       0.00000000
Si       1.77531678      -1.87937730      -0.31153116       0.00000000
Si      -1.84933854      -1.62940725      -2.29066307       0.00000000
Si       2.10233619       0.43533396       2.67660183       0.00000000
Si      -0.61831953      -2.30495355       2.67873174       0.00000000
Si       1.10840418       1.23792597      -3.20415349       0.00000000
Si       0.35544780      -2.29084641      -2.92692181       0.00000000
Si      -3.04916220      -2.29469085      -0.22939225       0.00000000
