10
Lattice="16.28999089631971 0.0 0.0 0.0 16.28999089631971 0.0 0.0 0.0 34.35334932831803" Properties=species:S:1:pos:R:3:initial_magmoms:R:1 pbc="T T T"
Si      -1.47338163       1.21386564       1.44714939       0.00000000
Si       1.24792569      -1.46927655       1.45585797       0.00000000
Si      -0.85441050      -1.90461051      -1.22074386       0.00000000
Si       0.89044398       1.95671637      -1.31316923       0.00000000
Si      -2.78674659       2.52238011      -0.02378971       0.00000000
Si      -1.69329663      -1.00820439      -3.23465619       0.00000000
Si      -0.11363904       2.57748266       2.81797590       0.00000000
Si       2.59908809      -0.13981707       2.81979663       0.00000000
Si       2.64181676      -2.78547597       0.09930872       0.00000000
Si      -2.72202642      -2.77848756       0.07800963       0.00000000
