10
Lattice="16.28999089631971 0.0 0.0 0.0 16.28999089631971 0.0 0.0 0.0 34.35334932831803" Properties=species:S:1:pos:R:3:initial_magmoms:R:1 pbc="T T T"
Si       1.35560493      -1.35734796      -1.35829784       0.00000000
Si      -1.35729909      -1.35702216       1.35771383       0.00000000
Si      -1.35503478       1.35977517      -1.35761077       0.00000000
Si       1.35775521       1.35790182       1.35764512       0.00000000
Si      -2.70399339      -0.00563634      -2.71664721       0.00000000
Si       0.00037467      -2.71463076       2.71515283       0.00000000
Si       2.71487564       0.00048870       2.71508413       0.00000000
Si      -2.71357191      -2.71653669       0.00048095       0.00000000
Si      -2.71490769       0.00014661       2.71522154       0.00000000
Si       0.00076563       2.71529985       2.71515283       0.00000000
