10
Lattice="16.28999089631971 0.0 0.0 0.0 16.28999089631971 0.0 0.0 0.0 34.35334932831803" Properties=species:S:1:pos:R:3:initial_magmoms:R:1 pbc="T T T"
Si       1.34526078       1.33494921       1.37059634       0.00000000
Si       1.35228177      -1.35650088      -1.35675194       0.00000000
Si      -1.36117611       1.35558864      -1.35627099       0.00000000
Si      -1.34169327      -1.36977723       1.37203919       0.00000000
Si      -0.12054600       2.57238648       2.75527757       0.00000000
Si       2.71034649      -2.71363707       0.00831352       0.00000000
Si       2.71109636       0.00017919      -2.71388176       0.00000000
Si      -0.00340461      -2.71494027      -2.71381305       0.00000000
Si      -0.00301365       2.71499034      -2.71381305       0.00000000
Si       2.71148740       2.71766070       0.00680197       0.00000000
