10
Lattice="16.28999089631971 0.0 0.0 0.0 16.28999089631971 0.0 0.0 0.0 34.35334932831803" Properties=species:S:1:pos:R:3:initial_magmoms:R:1 pbc="T T T"
Si       0.71866334       1.84482621       1.32198633       0.00000000
Si      -1.30719105       1.38259746      -1.47214490       0.00000000
Si       1.42730929      -1.30647429      -1.45002133       0.00000000
Si      -1.24753707      -1.56693510       1.45946851       0.00000000
Si      -2.77299783       2.62003473      -0.08746368       0.00000000
Si       2.72607353       2.67032196       0.02885683       0.00000000
Si      -2.73090447      -2.76697053       0.04397231       0.00000000
Si      -2.65245183       0.04764825      -2.84274125       0.00000000
Si       0.05789466      -2.66598882      -2.83442773       0.00000000
Si       2.92086935      -2.65536774       0.00632102       0.00000000
