10
Lattice="16.28999089631971 0.0 0.0 0.0 16.28999089631971 0.0 0.0 0.0 34.35334932831803" Properties=species:S:1:pos:R:3:initial_magmoms:R:1 pbc="T T T"
Si       0.82564888       1.97519508       0.98528896       0.00000000
Si       0.24286924      -0.72568692      -2.24121376       0.00000000
Si       1.24340918      -1.83772377       0.83853137       0.00000000
Si      -2.35878941       0.03733668       0.44968559       0.00000000
Si      -0.37268881      -3.02314707      -2.24763784       0.00000000
Si       0.77891612       1.71841581       3.32623055       0.00000000
Si      -0.74493911       3.71156247       0.64446919       0.00000000
Si      -3.22468436      -2.13206778       0.24445857       0.00000000
Si       0.67656280      -3.83788979      -0.28022043       0.00000000
Si      -1.40888693       0.07110585      -3.66296227       0.00000000
