10
Lattice="16.28999089631971 0.0 0.0 0.0 16.28999089631971 0.0 0.0 0.0 34.35334932831803" Properties=species:S:1:pos:R:3:initial_magmoms:R:1 pbc="T T T"
Si      -1.35736861      -1.35625653      -1.35675194       0.00000000
Si       1.35568964      -1.35752715       1.35843525       0.00000000
Si       1.35741638       1.35902583      -1.35688935       0.00000000
Si      -1.35894831       1.36054080       1.36527157       0.00000000
Si       2.71499240      -2.71156824       0.00020612       0.00000000
Si      -2.71496049      -2.71215468       0.00003435       0.00000000
Si      -0.00016127      -2.71350675      -2.71401917       0.00000000
Si       2.71447112       0.00179190      -2.71395047       0.00000000
Si      -2.71544919       0.00268785      -2.71377870       0.00000000
Si       2.71352630       2.71581993       0.00099625       0.00000000
