10
Lattice="16.28999089631971 0.0 0.0 0.0 16.28999089631971 0.0 0.0 0.0 34.35334932831803" Properties=species:S:1:pos:R:3:initial_magmoms:R:1 pbc="T T T"
Si       1.34782971       1.35560493      -1.38928458       0.00000000
Si      -1.36941463      -1.35951453      -1.38440640       0.00000000
Si      -1.42730929       1.30647429       1.45002133       0.00000000
Si       1.49356005      -1.34889345       1.45634235       0.00000000
Si       2.69512674       2.69620677      -0.00628667       0.00000000
Si      -2.73450034       2.68907175      -0.02212357       0.00000000
Si       2.70929904      -2.72196126      -0.02868506       0.00000000
Si      -2.73226861      -2.71878471      -0.01020295       0.00000000
Si       2.70305997      -0.00423540      -2.74868172       0.00000000
Si      -0.01010143       2.71044423      -2.74912832       0.00000000
