10
Lattice="16.28999089631971 0.0 0.0 0.0 16.28999089631971 0.0 0.0 0.0 34.35334932831803" Properties=species:S:1:pos:R:3:initial_magmoms:R:1 pbc="T T T"
Si      -0.03069525      -2.33274429       0.30972997       0.00000000
Si      -1.33184664       0.78035616      -1.83313010       0.00000000
Si       2.27707973      -0.01845657      -0.75010580       0.00000000
Si      -0.93759606       0.90220536       2.06879421       0.00000000
Si       1.91421998      -1.55675385      -2.79327239       0.00000000
Si      -1.54895976       3.12295590      -1.68304023       0.00000000
Si      -2.16389097      -3.16192158       0.80376576       0.00000000
Si       3.04358939      -2.31111117      -0.85192919       0.00000000
Si      -3.17229084      -0.01050705       2.33551376       0.00000000
Si       3.79744172       0.68401710       0.85928081       0.00000000
