10
Lattice="16.28999089631971 0.0 0.0 0.0 16.28999089631971 0.0 0.0 0.0 34.35334932831803" Properties=species:S:1:pos:R:3:initial_magmoms:R:1 pbc="T T T"
Si       2.31955916       0.16021215       0.47349248       0.00000000
Si      -1.19613953       1.49372784       1.41676727       0.00000000
Si      -0.70730921       0.65399463      -2.17841581       0.00000000
Si      -1.02612080      -2.06601183       0.61331069       0.00000000
Si      -2.94200399      -0.25871778      -1.91169625       0.00000000
Si      -0.31722657       2.96663706      -1.87620922       0.00000000
Si      -2.45631764      -2.47826286      -1.31274527       0.00000000
Si      -1.50771836       3.48084720       0.13174517       0.00000000
Si      -3.31937813       0.55838862       1.90712725       0.00000000
Si       2.94069686      -1.39158954       2.13468397       0.00000000
