10
Lattice="16.28999089631971 0.0 0.0 0.0 16.28999089631971 0.0 0.0 0.0 34.35334932831803" Properties=species:S:1:pos:R:3:initial_magmoms:R:1 pbc="T T T"
Si       0.34981146       2.28610602       0.24174465       0.00000000
Si       1.21401225      -0.86615559       1.83646237       0.00000000
Si       1.62137628      -0.53714646      -1.64501105       0.00000000
Si      -2.32168827      -0.23451084      -0.68359768       0.00000000
Si       0.53476812       2.71598187      -2.08775727       0.00000000
Si       0.31509747      -3.04093575       1.66610402       0.00000000
Si       1.31066082       0.91367352      -3.37322596       0.00000000
Si       3.52953801      -0.60344676       1.11658754       0.00000000
Si      -3.51218006       0.27969930       1.32435671       0.00000000
Si      -2.71177091      -2.54715327      -0.98580426       0.00000000
