10
Lattice="10.86 0.0 0.0 0.0 10.86 0.0 0.0 0.0 10.86" Properties=species:S:1:pos:R:3:initial_magmoms:R:1 pbc="T T T"
Si       1.19035374      -1.21902414       1.48773312       0.00000000
Si       1.19035374       1.49597586      -1.22726688       0.00000000
Si      -1.52464626      -1.21902414      -1.22726688       0.00000000
Si       2.54785374      -2.57652414       0.13023312       0.00000000
Si       2.54785374       0.13847586      -2.58476688       0.00000000
Si      -0.16714626      -2.57652414      -2.58476688       0.00000000
Si       2.54785374       0.13847586       2.84523312       0.00000000
Si       2.54785374       2.85347586       0.13023312       0.00000000
Si      -0.16714626      -2.57652414       2.84523312       0.00000000
Si      -0.16714626       2.85347586      -2.58476688       0.00000000
