10
Lattice="10.86 0.0 0.0 0.0 10.86 0.0 0.0 0.0 10.86" Properties=species:S:1:pos:R:3:initial_magmoms:R:1 pbc="T T T"
Si      -1.06919958      -1.48849332      -1.18008018       0.00000000
Si      -1.06919958       1.22650668       1.53491982       0.00000000
Si       1.64580042       1.22650668      -1.18008018       0.00000000
Si      -2.42669958      -0.13099332      -2.53758018       0.00000000
Si      -2.42669958       2.58400668       0.17741982       0.00000000
Si       0.28830042       2.58400668      -2.53758018       0.00000000
Si      -2.42669958      -2.84599332       0.17741982       0.00000000
Si      -2.42669958      -0.13099332       2.89241982       0.00000000
Si       0.28830042      -2.84599332      -2.53758018       0.00000000
Si       0.28830042       2.58400668       2.89241982       0.00000000
