10
Lattice="16.28999089631971 0.0 0.0 0.0 16.28999089631971 0.0 0.0 0.0 34.31420841018396" Properties=species:S:1:pos:R:3:initial_magmoms:R:1 pbc="T T T"
Si       1.35663120      -1.35966713       1.36532880       0.00000000
Si      -1.36111095       1.35591281       1.36512292       0.00000000
Si       1.34638479       1.37508614      -1.38209473       0.00000000
Si      -1.36383138      -1.37444499      -1.38571832       0.00000000
Si       2.71251306       2.71435220       0.00538733       0.00000000
Si      -2.71662954       2.71058921       0.00693147       0.00000000
Si       2.71309950      -2.71419975       0.00490693       0.00000000
Si      -2.71798324      -2.71271736       0.00374025       0.00000000
Si      -0.00164529       2.71352141       2.72146139       0.00000000
Si       2.71366965      -0.00161760       2.72207905       0.00000000
