10
Lattice="16.28999089631971 0.0 0.0 0.0 16.28999089631971 0.0 0.0 0.0 34.31420841018396" Properties=species:S:1:pos:R:3:initial_magmoms:R:1 pbc="T T T"
Si      -1.05070500       1.53862308       1.43001112       0.00000000
Si       1.29021361       1.43474175      -1.40962847       0.00000000
Si      -1.47842568      -1.33125138      -1.38094177       0.00000000
Si       0.17916882      -1.70821827       1.78221235       0.00000000
Si      -2.37088962      -0.33267438       2.05593695       0.00000000
Si      -2.52315225       2.71637379      -0.06550586       0.00000000
Si       0.05818625      -2.45545034      -2.79156536       0.00000000
Si       0.92210848      -0.33112683       3.58933683       0.00000000
Si      -2.64783591       0.23583033      -2.78288386       0.00000000
Si       2.27295673       3.11992596      -0.05153997       0.00000000
