10
Lattice="16.28999089631971 0.0 0.0 0.0 16.28999089631971 0.0 0.0 0.0 34.31420841018396" Properties=species:S:1:pos:R:3:initial_magmoms:R:1 pbc="T T T"
Si       1.95222618      -1.35941679       0.22863570       0.00000000
Si      -1.47914829       0.20984778       1.88220401       0.00000000
Si      -0.93385683       1.13396319      -2.00422540       0.00000000
Si       2.24305155       0.77410080       1.40430976       0.00000000
Si      -3.29993046       0.52310448       0.47041375       0.00000000
Si       2.01290643      -1.71138830      -2.14848242       0.00000000
Si       2.22993810       2.95409376       0.21432667       0.00000000
Si      -0.74647296       2.10773052       3.05811828       0.00000000
Si      -2.81663874       2.48152086      -0.79145766       0.00000000
Si       1.45080369       1.48423077       3.54400774       0.00000000
