10
Lattice="16.28999089631971 0.0 0.0 0.0 16.28999089631971 0.0 0.0 0.0 34.31420841018396" Properties=species:S:1:pos:R:3:initial_magmoms:R:1 pbc="T T T"
Si      -1.69513740       0.36562091       1.51051230       0.00000000
Si       1.84477734       0.56040044       1.30517596       0.00000000
Si       0.11072313       0.62200921      -2.29188157       0.00000000
Si       0.22968900      -2.38581615      -0.25824888       0.00000000
Si       2.37700422      -1.60055670      -0.81921787       0.00000000
Si       1.19586519      -1.41929787      -2.86345366       0.00000000
Si      -3.33019728      -0.95973838       0.47789425       0.00000000
Si       0.40366620      -2.87467905       2.02433354       0.00000000
Si       1.97144838      -1.28161933       2.74287347       0.00000000
Si      -2.12703417       0.69930526      -3.04923089       0.00000000
