10
Lattice="16.28999089631971 0.0 0.0 0.0 16.28999089631971 0.0 0.0 0.0 34.31420841018396" Properties=species:S:1:pos:R:3:initial_magmoms:R:1 pbc="T T T"
Si      -1.27855323      -1.60808670       1.26881802       0.00000000
Si       1.53728730       1.37046553       1.28183340       0.00000000
Si      -1.13160114       0.81567700      -2.02639240       0.00000000
Si       2.06086419      -0.66395088      -1.38042706       0.00000000
Si       1.18631925       1.22026522      -2.64524949       0.00000000
Si      -2.47800222      -0.01266039       2.69971444       0.00000000
Si       0.24526224      -2.71552977       2.71428427       0.00000000
Si       0.23221395       2.73687073       2.70333803       0.00000000
Si       3.03582069      -2.59552134      -0.19071848       0.00000000
Si       2.95075431       0.00321257       2.71636714       0.00000000
