10
Lattice="16.28999089631971 0.0 0.0 0.0 16.28999089631971 0.0 0.0 0.0 34.31420841018396" Properties=species:S:1:pos:R:3:initial_magmoms:R:1 pbc="T T T"
Si      -1.30649058       1.35428544       1.48740853       0.00000000
Si      -1.48831956      -0.87891066      -1.66609785       0.00000000
Si       1.38448710      -1.36531377       1.47809565       0.00000000
Si       1.83381417       1.11011463      -1.22934636       0.00000000
Si      -2.72124450      -2.55419055      -0.12975239       0.00000000
Si       3.51916128      -0.79817742      -1.17687129       0.00000000
Si      -2.61436581       2.79352323       0.11244429       0.00000000
Si       2.77236252      -2.69229717       0.05079878       0.00000000
Si      -2.67556734      -0.00239463       2.85646386       0.00000000
Si       0.04549797       2.71062342       2.85567463       0.00000000
