10
Lattice="16.28999089631971 0.0 0.0 0.0 16.28999089631971 0.0 0.0 0.0 34.31420841018396" Properties=species:S:1:pos:R:3:initial_magmoms:R:1 pbc="T T T"
Si       2.13672672       0.09457974      -0.82525717       0.00000000
Si      -0.00131949      -0.97728597       2.09917287       0.00000000
Si      -0.71407704       2.20105593       0.32499005       0.00000000
Si      -0.74293966      -1.37709144      -1.80712448       0.00000000
Si       1.60386453      -2.07812182      -1.69419636       0.00000000
Si      -2.29311791      -1.44943533       1.97848973       0.00000000
Si      -1.97281348       1.86974991      -2.15932571       0.00000000
Si      -3.29299811      -0.00154755      -1.53339989       0.00000000
Si      -0.92210848       0.33112683      -3.58933683       0.00000000
Si      -2.70022130       2.03473503       1.61976880       0.00000000
