10
Lattice="16.28999089631971 0.0 0.0 0.0 16.28999089631971 0.0 0.0 0.0 34.31420841018396" Properties=species:S:1:pos:R:3:initial_magmoms:R:1 pbc="T T T"
Si      -1.35687555       1.35692442      -1.36419643       0.00000000
Si       1.35889551      -1.35855342      -1.36467683       0.00000000
Si      -1.34579835      -1.37176461       1.38049569       0.00000000
Si       1.37513664       1.34900748       1.37799075       0.00000000
Si      -2.70984150      -2.71730232      -0.00408339       0.00000000
Si      -2.71306692       2.71524978      -0.00391182       0.00000000
Si       2.71453302      -2.71467963      -0.00315691       0.00000000
Si       2.72062548       2.70956457      -0.00809816       0.00000000
Si      -2.71358820      -0.00055386      -2.72194179       0.00000000
Si       0.00115659       2.71482624      -2.72159865       0.00000000
