10
Lattice="16.28999089631971 0.0 0.0 0.0 16.28999089631971 0.0 0.0 0.0 34.31420841018396" Properties=species:S:1:pos:R:3:initial_magmoms:R:1 pbc="T T T"
Si      -1.49965740       1.24701579       1.23603279       0.00000000
Si       1.32538698       1.38061008      -1.35946107       0.00000000
Si      -1.38903201      -1.33467228      -1.35956401       0.00000000
Si       1.46013786      -1.37287233       1.52832138       0.00000000
Si      -2.63573829      -0.22988448       2.70382388       0.00000000
Si       2.69917155      -2.70091458       0.02233856       0.00000000
Si       2.68333767       0.02199150      -2.71902508       0.00000000
Si       2.67698457       2.73359232       0.02748570       0.00000000
Si      -0.03284064      -2.69299764      -2.71984862       0.00000000
Si      -2.75812506      -2.69161299       0.01091192       0.00000000
