10
Lattice="16.28999089631971 0.0 0.0 0.0 16.28999089631971 0.0 0.0 0.0 34.31420841018396" Properties=species:S:1:pos:R:3:initial_magmoms:R:1 pbc="T T T"
Si      -1.51712028       1.81778481      -0.22091500       0.00000000
Si       0.58841109      -0.83469960       2.15349229       0.00000000
Si       2.01916179       0.14594211      -1.32923023       0.00000000
Si      -1.67080014      -1.60305003      -0.77162404       0.00000000
Si       0.89570565      -1.28943495      -3.05571628       0.00000000
Si      -0.27588744      -3.05823573      -1.94544513       0.00000000
Si      -1.15088850       3.06151002       1.62930815       0.00000000
Si      -3.20017050      -0.14644710      -1.88021379       0.00000000
Si       1.47960441       0.93879270       3.37875042       0.00000000
Si       2.22343839      -2.53359999       2.19569879       0.00000000
