10
Lattice="16.28999089631971 0.0 0.0 0.0 16.28999089631971 0.0 0.0 0.0 34.31420841018396" Properties=species:S:1:pos:R:3:initial_magmoms:R:1 pbc="T T T"
Si       0.98249877       1.67759307      -1.30637696       0.00000000
Si      -2.09720718      -0.69253677      -0.79832050       0.00000000
Si      -0.62372781       0.96669747       2.06194194       0.00000000
Si       1.78206084      -1.57993452      -0.03802016       0.00000000
Si      -0.67333086      -0.94444533       3.39532419       0.00000000
Si      -3.41208059       1.15515648      -0.24623890       0.00000000
Si       1.39308822       0.51979761      -3.34059300       0.00000000
Si      -2.31044328      -2.83718043       0.11512423       0.00000000
Si       2.20525875      -1.53583749      -2.48997761       0.00000000
Si       3.37053132      -0.56729925       1.46360475       0.00000000
