10
Lattice="16.28999089631971 0.0 0.0 0.0 16.28999089631971 0.0 0.0 0.0 34.31420841018396" Properties=species:S:1:pos:R:3:initial_magmoms:R:1 pbc="T T T"
Si       2.02142610       0.73708992      -0.91488594       0.00000000
Si      -1.96317306       1.01791323      -0.84697808       0.00000000
Si      -0.02293632      -1.71818775      -1.67003914       0.00000000
Si      -0.19782576      -1.02925107       2.17157589       0.00000000
Si      -3.13898526      -1.09838583      -0.89316503       0.00000000
Si      -0.52649280      -3.51525168      -0.32413219       0.00000000
Si       1.99083348      -2.13351759       2.09941307       0.00000000
Si      -1.04803344       1.92137292      -2.87415970       0.00000000
Si       1.24867737       2.09539899      -2.66765668       0.00000000
Si       3.30670710       1.98531117       0.49361016       0.00000000
