10
Lattice="16.28999089631971 0.0 0.0 0.0 16.28999089631971 0.0 0.0 0.0 34.31420841018396" Properties=species:S:1:pos:R:3:initial_magmoms:R:1 pbc="T T T"
Si      -1.35772263       1.35638752      -1.36035324       0.00000000
Si       1.35928647      -1.35721764      -1.36121109       0.00000000
Si      -1.38175038      -1.35402480       1.35067663       0.00000000
Si       1.37428956       1.37409638       1.36443663       0.00000000
Si      -2.71176372      -2.71370223      -0.00394614       0.00000000
Si      -2.71164969       2.71548503      -0.00006863       0.00000000
Si       2.71639008      -2.71339272      -0.00010294       0.00000000
Si       2.71529865       2.71592486      -0.00514713       0.00000000
Si      -2.71357191       0.00036900      -2.71799565       0.00000000
Si       0.00130320      -2.71397916      -2.71792702       0.00000000
