10
Lattice="16.28999089631971 0.0 0.0 0.0 16.28999089631971 0.0 0.0 0.0 34.31420841018396" Properties=species:S:1:pos:R:3:initial_magmoms:R:1 pbc="T T T"
Si       0.95052150      -1.94885415       0.81969827       0.00000000
Si      -1.68463035      -0.82070649      -1.38382417       0.00000000
Si      -0.93001239       1.89379395       1.11250157       0.00000000
Si       2.09341161       0.62825643      -1.10982506       0.00000000
Si       2.74980087      -0.93514374       1.90598377       0.00000000
Si      -0.97142157       3.30280306      -0.81983553       0.00000000
Si       1.36111095      -3.10664961      -1.21451777       0.00000000
Si       2.50232319       1.42408809       2.18255645       0.00000000
Si       2.66748750       2.57560654       0.08626597       0.00000000
Si      -3.58546973      -1.03983957       0.02549547       0.00000000
