10
Lattice="16.28999089631971 0.0 0.0 0.0 16.28999089631971 0.0 0.0 0.0 34.31420841018396" Properties=species:S:1:pos:R:3:initial_magmoms:R:1 pbc="T T T"
Si       2.01776085      -0.84118302      -0.78291342       0.00000000
Si       0.36158913       2.30869115       0.30258286       0.00000000
Si      -1.41457473      -0.37147716      -1.85296829       0.00000000
Si      -0.82854198      -0.97120980       1.99146051       0.00000000
Si      -3.48361650      -0.27614808      -0.73264307       0.00000000
Si      -3.00931686      -1.49191965       1.24447409       0.00000000
Si       2.59934643       2.23139510       1.05993218       0.00000000
Si       2.18292516       0.31033543      -2.87920389       0.00000000
Si       3.68448849       0.19008801       0.48836009       0.00000000
Si      -0.48456234      -2.26527111      -2.96546986       0.00000000
