10
Lattice="16.28999089631971 0.0 0.0 0.0 16.28999089631971 0.0 0.0 0.0 34.31420841018396" Properties=species:S:1:pos:R:3:initial_magmoms:R:1 pbc="T T T"
Si      -0.00848709      -1.33384149      -1.95563646       0.00000000
Si      -1.18395720       2.05693830      -0.11378598       0.00000000
Si       2.35678833       0.42202503      -0.07151085       0.00000000
Si      -0.92677068      -1.43237970       1.86827244       0.00000000
Si       3.08708532      -1.80791307      -0.47837465       0.00000000
Si       1.10151351      -2.68669341       2.36356400       0.00000000
Si       1.45202544      -3.13327236      -1.51099270       0.00000000
Si      -1.97388211      -2.66994566      -1.87606176       0.00000000
Si      -2.61498483      -2.74940991       0.43946231       0.00000000
Si       2.94101289       2.05412013      -1.70538280       0.00000000
