10
Lattice="16.28999089631971 0.0 0.0 0.0 16.28999089631971 0.0 0.0 0.0 34.31420841018396" Properties=species:S:1:pos:R:3:initial_magmoms:R:1 pbc="T T T"
Si      -1.35237951      -1.35022923      -1.38581440       0.00000000
Si       1.36189287       1.36523232      -1.38011823       0.00000000
Si       1.38434049      -1.39826844       1.39806457       0.00000000
Si      -1.23178464       1.36674729       1.60333228       0.00000000
Si       0.73422288       2.11348089       2.88517457       0.00000000
Si       2.46760920       0.15040557       2.73364294       0.00000000
Si      -2.69338860      -2.69205771      -0.01623063       0.00000000
Si      -2.69843850       2.70814734       0.00353437       0.00000000
Si       0.00477297      -2.70727745      -2.74167247       0.00000000
Si      -2.70966231       0.00503361      -2.74198130       0.00000000
