10
Lattice="16.28999089631971 0.0 0.0 0.0 16.28999089631971 0.0 0.0 0.0 34.31420841018396" Properties=species:S:1:pos:R:3:initial_magmoms:R:1 pbc="T T T"
Si      -1.95222618       1.35941679      -0.22863570       0.00000000
Si       0.06068025      -0.35197151      -2.37711812       0.00000000
Si       0.29082537       2.13351759       1.17567407       0.00000000
Si       0.67745223      -1.54840001       1.80324697       0.00000000
Si       2.77920432      -0.44031544       1.40935396       0.00000000
Si       3.57917364       0.79716744      -0.99199001       0.00000000
Si       2.72196126       1.93862403       2.07968239       0.00000000
Si      -3.43137447       1.56926457       1.65356831       0.00000000
Si       1.27852065       0.96982515      -3.89322363       0.00000000
Si       0.08451252      -1.00543835       4.08874610       0.00000000
