10
Lattice="16.28999089631971 0.0 0.0 0.0 16.28999089631971 0.0 0.0 0.0 34.31420841018396" Properties=species:S:1:pos:R:3:initial_magmoms:R:1 pbc="T T T"
Si       0.54512856      -2.33193404      -0.04419673       0.00000000
Si       2.10175209       1.10808457      -0.39389302       0.00000000
Si      -0.59293971       0.54296166       2.28549913       0.00000000
Si      -0.67745223       1.54840001      -1.80324697       0.00000000
Si       3.27523482      -0.09178861       1.31402903       0.00000000
Si      -2.84780151      -0.12195655       2.34602943       0.00000000
Si       2.73579147      -2.35301330       0.96968576       0.00000000
Si      -0.38662686       3.68191760      -0.62757291       0.00000000
Si      -1.41591051      -3.38830796       0.84694377       0.00000000
Si       2.04450903       3.48702404       0.27643542       0.00000000
