10
Lattice="16.28999089631971 0.0 0.0 0.0 16.28999089631971 0.0 0.0 0.0 34.31420841018396" Properties=species:S:1:pos:R:3:initial_magmoms:R:1 pbc="T T T"
Si       1.55595564       1.28640501      -1.28712809       0.00000000
Si      -1.30561092       1.35778779       1.50619557       0.00000000
Si      -1.18138338      -1.26938196      -1.69512425       0.00000000
Si       1.39369095      -1.33232652       1.47894321       0.00000000
Si      -0.24386130       2.21097654      -2.73378161       0.00000000
Si      -2.13407145       0.64985697      -2.78466961       0.00000000
Si      -2.53553850      -2.58458769      -0.02927690       0.00000000
Si      -2.67615378       2.64692952       0.17390107       0.00000000
Si       2.64429054      -2.85669585       0.10682019       0.00000000
Si       2.78725158       2.73206106       0.07713495       0.00000000
