10
Lattice="16.28999089631971 0.0 0.0 0.0 16.28999089631971 0.0 0.0 0.0 34.31420841018396" Properties=species:S:1:pos:R:3:initial_magmoms:R:1 pbc="T T T"
Si       1.37054286      -1.28914173       1.33229449       0.00000000
Si       1.50649920       1.12840830      -1.37347009       0.00000000
Si      -1.27304721      -1.15434198      -1.59852627       0.00000000
Si      -1.35811359       1.44439193       1.30855934       0.00000000
Si      -0.19284102       2.07206261      -2.67743422       0.00000000
Si       0.54208233      -1.99707255      -2.95857068       0.00000000
Si      -2.24800371       0.77722848      -2.78823486       0.00000000
Si       0.00706986      -2.62945035       2.68246327       0.00000000
Si       2.67615378      -2.64692952      -0.17390107       0.00000000
Si      -2.76530895      -2.59105482      -0.23329214       0.00000000
