10
Lattice="16.28999089631971 0.0 0.0 0.0 16.28999089631971 0.0 0.0 0.0 34.31420841018396" Properties=species:S:1:pos:R:3:initial_magmoms:R:1 pbc="T T T"
Si       1.35109260       1.35119034       1.37652553       0.00000000
Si      -1.36001463      -1.36653552       1.37913342       0.00000000
Si      -1.42666191       1.27283544      -1.42254434       0.00000000
Si       1.30541544      -1.20060558      -1.60969071       0.00000000
Si      -2.29319869      -0.54364617      -2.77022675       0.00000000
Si      -0.50847606      -2.24132481      -2.92076327       0.00000000
Si       2.70299970      -2.70203859      -0.00989279       0.00000000
Si      -2.73270356       2.69498502       0.00642362       0.00000000
Si       2.72016936       2.70787041       0.00747021       0.00000000
Si      -2.69947389      -2.74227489       0.01843360       0.00000000
