10
Lattice="16.28999089631971 0.0 0.0 0.0 16.28999089631971 0.0 0.0 0.0 34.31420841018396" Properties=species:S:1:pos:R:3:initial_magmoms:R:1 pbc="T T T"
Si      -1.73358180       0.30190257       1.53123809       0.00000000
Si       1.73547144       1.24717284       1.01024517       0.00000000
Si       0.37769994      -2.36522655      -0.02834355       0.00000000
Si      -0.98028333       1.08706821      -1.89685619       0.00000000
Si      -3.40030944      -0.72936846       0.25996459       0.00000000
Si       2.81052999       1.86429017      -0.95005802       0.00000000
Si      -0.81288729       3.35007827      -1.09174146       0.00000000
Si      -0.55244277       0.12064374       3.57547389       0.00000000
Si       2.52107298      -2.51090802      -0.94501383       0.00000000
Si      -3.23514513       0.42214999      -1.83632589       0.00000000
