10
Lattice="16.28999089631971 0.0 0.0 0.0 16.28999089631971 0.0 0.0 0.0 34.31420841018396" Properties=species:S:1:pos:R:3:initial_magmoms:R:1 pbc="T T T"
Si      -0.92579328       1.56436128       1.53421259       0.00000000
Si      -1.89021015      -1.56111957      -0.05088800       0.00000000
Si      -0.10073736       0.93317265      -2.29503848       0.00000000
Si       1.79981694      -0.92457153       1.44665352       0.00000000
Si       2.38777191      -0.38390643      -0.82511992       0.00000000
Si       0.24386130      -2.21097654       2.73378161       0.00000000
Si      -0.51217389      -1.14254802      -3.35970602       0.00000000
Si      -2.22060393       1.92434945      -2.13609498       0.00000000
Si      -2.62513350       2.50801559       0.23024847       0.00000000
Si      -0.93752208      -3.48035850       1.03865735       0.00000000
