10
Lattice="16.28999089631971 0.0 0.0 0.0 16.28999089631971 0.0 0.0 0.0 34.31420841018396" Properties=species:S:1:pos:R:3:initial_magmoms:R:1 pbc="T T T"
Si      -1.35307998      -1.34641020       1.36125570       0.00000000
Si      -1.36917450       1.29243200      -1.41309764       0.00000000
Si       1.35984033       1.37125768       1.35868214       0.00000000
Si       1.38693060      -1.34717583      -1.42051294       0.00000000
Si       0.52582491       1.96023892      -2.68849022       0.00000000
Si      -2.56997556      -0.30389907      -2.69721691       0.00000000
Si       2.37666213       0.25487792      -2.87615477       0.00000000
Si      -0.00079821      -2.70346494       2.71903537       0.00000000
Si      -2.70593190      -2.72144910       0.00854767       0.00000000
Si      -2.71371852       0.01061196       2.71869223       0.00000000
