10
Lattice="16.28999089631971 0.0 0.0 0.0 16.28999089631971 0.0 0.0 0.0 34.31420841018396" Properties=species:S:1:pos:R:3:initial_magmoms:R:1 pbc="T T T"
Si      -0.27497520       0.92154159      -2.14247747       0.00000000
Si      -1.89499941      -0.66780692       1.27539258       0.00000000
Si       0.89171460       1.95844896       1.21354462       0.00000000
Si       1.85083722      -1.70536100      -0.18766455       0.00000000
Si      -0.52582491      -1.96023892       2.68849022       0.00000000
Si       2.20856368       0.74526750       2.68860003       0.00000000
Si       0.84667275       3.03039612      -1.71049566       0.00000000
Si       0.86110569      -3.30741476       1.26797728       0.00000000
Si       3.56285010      -0.58449823       1.15385502       0.00000000
Si      -3.09580047      -2.26413800      -0.00872669       0.00000000
