10
Lattice="16.28999089631971 0.0 0.0 0.0 16.28999089631971 0.0 0.0 0.0 34.31420841018396" Properties=species:S:1:pos:R:3:initial_magmoms:R:1 pbc="T T T"
Si      -1.35480672       1.35544203      -1.36052481       0.00000000
Si      -1.35752715      -1.35751900       1.35644142       0.00000000
Si       1.35769005       1.35715248       1.35699044       0.00000000
Si       1.35783666      -1.35509994      -1.36049050       0.00000000
Si       2.71283663       2.71531494      -0.00013726       0.00000000
Si       2.71429531       0.00032580       2.71404952       0.00000000
Si      -0.00042354      -2.71459630       2.71398089       0.00000000
Si       2.71289092      -2.71580649       0.00034314       0.00000000
Si      -0.00081450       2.71557558       2.71408383       0.00000000
Si      -2.71595025       0.00063531       2.71384363       0.00000000
