10
Lattice="16.28999089631971 0.0 0.0 0.0 16.28999089631971 0.0 0.0 0.0 34.31420841018396" Properties=species:S:1:pos:R:3:initial_magmoms:R:1 pbc="T T T"
Si       0.44450523      -0.10163331      -2.24078769       0.00000000
Si       1.03728204       1.93464927       0.91238100       0.00000000
Si      -2.44164294       0.05059674       0.30525937       0.00000000
Si       1.44438543      -1.54952109       1.27110193       0.00000000
Si      -2.38439988      -2.32834273      -0.36506907       0.00000000
Si      -1.58443056      -1.09085985      -2.76641303       0.00000000
Si       0.83390139       1.29870396       3.20930676       0.00000000
Si       3.02342630       2.10097017      -0.38239775       0.00000000
Si      -2.61775413      -0.33528078       2.61965108       0.00000000
Si       0.85343310      -1.09059921       3.46144771       0.00000000
