10
Lattice="16.28999089631971 0.0 0.0 0.0 16.28999089631971 0.0 0.0 0.0 34.31420841018396" Properties=species:S:1:pos:R:3:initial_magmoms:R:1 pbc="T T T"
Si      -1.32947577       1.78096289      -0.64147017       0.00000000
Si      -1.07505855      -0.61711733       1.96030319       0.00000000
Si       2.14171146       1.02564446       0.20032646       0.00000000
Si       0.07736121      -1.41197224      -1.91826826       0.00000000
Si      -0.14659371       3.34504724       0.64617122       0.00000000
Si       2.73266379       0.56672258      -1.99001931       0.00000000
Si       0.71434908      -1.76902625       2.93026346       0.00000000
Si      -2.81052999      -1.86429017       0.95005802       0.00000000
Si       2.40492528      -1.73831960      -1.90461120       0.00000000
Si      -1.09612152      -0.21209906      -3.62619031       0.00000000
