10
Lattice="16.28999089631971 0.0 0.0 0.0 16.28999089631971 0.0 0.0 0.0 34.31420841018396" Properties=species:S:1:pos:R:3:initial_magmoms:R:1 pbc="T T T"
Si      -1.35713619      -1.35669636      -1.35681887       0.00000000
Si       1.35828217       1.35811359      -1.35661299       0.00000000
Si       1.36081773      -1.35439947       1.35812281       0.00000000
Si      -1.36013355       1.35742941       1.35887773       0.00000000
Si       2.71453043      -2.71394658       0.00096080       0.00000000
Si      -2.71459818       0.00112401      -2.71425540       0.00000000
Si       0.00136836      -2.71511946      -2.71391226       0.00000000
Si       2.71467541       2.71484253       0.00140688       0.00000000
Si       2.71573589       0.00014661      -2.71380932       0.00000000
Si       0.00061902       2.71518462      -2.71463286       0.00000000
