10
Lattice="16.28999089631971 0.0 0.0 0.0 16.28999089631971 0.0 0.0 0.0 34.31420841018396" Properties=species:S:1:pos:R:3:initial_magmoms:R:1 pbc="T T T"
Si      -1.35674523      -1.35558864      -1.35819144       0.00000000
Si       1.36019871      -1.35348723       1.35918655       0.00000000
Si       1.35839052       1.35935163      -1.35795124       0.00000000
Si      -1.35830907       1.35975888       1.36090227       0.00000000
Si      -2.71542897      -2.71275089      -0.00065197       0.00000000
Si       0.00167787      -2.71374295      -2.71559366       0.00000000
Si      -2.71437012       0.00200367      -2.71531914       0.00000000
Si      -2.71394658       2.71588509      -0.00061766       0.00000000
Si       2.71678104      -2.71332919      -0.00082354       0.00000000
Si       2.71552671       2.71604799      -0.00113237       0.00000000
