10
Lattice="16.28999089631971 0.0 0.0 0.0 16.28999089631971 0.0 0.0 0.0 34.31420841018396" Properties=species:S:1:pos:R:3:initial_magmoms:R:1 pbc="T T T"
Si       1.39856166      -1.29515274      -1.37153968       0.00000000
Si       1.52324532       1.18539072       1.34583832       0.00000000
Si      -1.57081212      -1.13155227       1.37600053       0.00000000
Si      -1.31230611       1.45065708      -1.36148561       0.00000000
Si      -3.30419844       0.83152305       1.52753216       0.00000000
Si      -2.65408083      -2.68022628       0.04042216       0.00000000
Si       0.04197933      -2.62997163      -2.73947636       0.00000000
Si      -2.57189778       2.78643708       0.22805236       0.00000000
Si      -2.67652845       0.08327448      -2.73776065       0.00000000
Si       2.56797189      -2.86223445       0.03040241       0.00000000
