10
Lattice="16.28999089631971 0.0 0.0 0.0 16.28999089631971 0.0 0.0 0.0 34.31420841018396" Properties=species:S:1:pos:R:3:initial_magmoms:R:1 pbc="T T T"
Si      -1.52324532      -1.18539072      -1.34583832       0.00000000
Si       1.23768019       1.51324326      -1.31619083       0.00000000
Si      -0.94455936       1.66467510       1.42531007       0.00000000
Si       1.47244725      -1.17775071       1.49551698       0.00000000
Si      -0.12468366      -2.48054346      -2.71737800       0.00000000
Si       2.52315225      -2.71637379       0.06550586       0.00000000
Si       0.15226263      -3.04904817       2.12144281       0.00000000
Si       2.59083883       0.23654709      -2.73072623       0.00000000
Si       2.87600669       2.43706545       0.41753552       0.00000000
Si       0.95687460       2.94293511       2.26968027       0.00000000
