10
Lattice="16.28999089631971 0.0 0.0 0.0 16.28999089631971 0.0 0.0 0.0 34.31420841018396" Properties=species:S:1:pos:R:3:initial_magmoms:R:1 pbc="T T T"
Si       0.88077491       1.56273228       1.55460608       0.00000000
Si      -2.26877346      -0.06990039       0.69798570       0.00000000
Si       0.20338065       0.63594531      -2.29692577       0.00000000
Si       0.01953171      -2.38930317       0.25214094       0.00000000
Si       0.61048404      -2.84822505      -1.93820483       0.00000000
Si      -0.83390139      -1.29870396      -3.20930676       0.00000000
Si       1.28883289       0.08977419       3.39573596       0.00000000
Si      -0.71159607       2.83116942      -2.26206251       0.00000000
Si       2.81726495      -1.34170956       2.14395294       0.00000000
Si      -0.68235552       3.40687431       1.58878305       0.00000000
