10
Lattice="16.28999089631971 0.0 0.0 0.0 16.28999089631971 0.0 0.0 0.0 34.31420841018396" Properties=species:S:1:pos:R:3:initial_magmoms:R:1 pbc="T T T"
Si      -1.34845362      -1.36547667       1.38033784       0.00000000
Si       1.36658439       1.35135324       1.37704368       0.00000000
Si       1.25059959      -1.52436933      -1.37212302       0.00000000
Si      -1.39369095       1.33232652      -1.47894321       0.00000000
Si      -2.69930187       2.69011431       0.02725236       0.00000000
Si       0.16226469       2.61873153      -2.76607130       0.00000000
Si      -2.70223407      -2.69663031       0.00669814       0.00000000
Si       2.73473262       2.69912268      -0.00489321       0.00000000
Si       2.70778896      -2.73566115       0.00680451       0.00000000
Si      -2.70651834      -0.00821016       2.73753417       0.00000000
