10
Lattice="16.28999089631971 0.0 0.0 0.0 16.28999089631971 0.0 0.0 0.0 34.31420841018396" Properties=species:S:1:pos:R:3:initial_magmoms:R:1 pbc="T T T"
Si      -2.32326351      -0.49826223      -0.10541331       0.00000000
Si       0.17018163       1.50535890       1.85622814       0.00000000
Si      -0.15343551       1.07527032      -2.14069309       0.00000000
Si       1.30945536      -2.19367656       0.15534051       0.00000000
Si       1.10734533      -0.06802704       3.32645554       0.00000000
Si      -2.16267669      -2.07998865      -1.89805718       0.00000000
Si      -0.59197860      -3.47193657      -0.68902969       0.00000000
Si      -1.03863411      -0.72539370      -3.45304072       0.00000000
Si      -2.75133213      -1.83138696       1.77713385       0.00000000
Si      -3.44854413       1.65876183      -0.21511589       0.00000000
