10
Lattice="16.28999089631971 0.0 0.0 0.0 16.28999089631971 0.0 0.0 0.0 34.31420841018396" Properties=species:S:1:pos:R:3:initial_magmoms:R:1 pbc="T T T"
Si       1.74089601       1.29707496       0.79591851       0.00000000
Si      -1.99412406       0.09629019       1.26266063       0.00000000
Si       1.05668343      -1.92999033       0.96251408       0.00000000
Si      -0.47374578      -0.22520925      -2.37790734       0.00000000
Si      -3.14033733      -1.43405757      -0.09982009       0.00000000
Si       2.46022983      -2.34797544      -0.95990620       0.00000000
Si       0.78079599      -2.24811774      -2.63454345       0.00000000
Si      -2.82030399      -0.48498588      -2.21443436       0.00000000
Si       0.76018914       3.32070021       1.35901498       0.00000000
Si       3.38493168       1.53815067      -0.82858565       0.00000000
