10
Lattice="16.28999089631971 0.0 0.0 0.0 16.28999089631971 0.0 0.0 0.0 34.31420841018396" Properties=species:S:1:pos:R:3:initial_magmoms:R:1 pbc="T T T"
Si      -1.64403567      -0.24107571       1.62450416       0.00000000
Si       1.65607302       1.10016144       1.23551808       0.00000000
Si      -0.93716370       1.57338594      -1.47022740       0.00000000
Si       0.70402841      -2.18447271      -0.68124036       0.00000000
Si      -1.10734533       0.06802704      -3.32645554       0.00000000
Si       1.79748488      -0.33128973       3.08985894       0.00000000
Si      -0.40355217      -1.05476121       3.42576091       0.00000000
Si      -2.79736767       2.48455080      -0.08005509       0.00000000
Si       0.63267218       3.02461317       2.18389470       0.00000000
Si       0.70239615       3.31558515      -1.69773072       0.00000000
