10
Lattice="16.28999089631971 0.0 0.0 0.0 16.28999089631971 0.0 0.0 0.0 34.31420841018396" Properties=species:S:1:pos:R:3:initial_magmoms:R:1 pbc="T T T"
Si       1.35315864      -1.27669617      -1.41453540       0.00000000
Si      -1.23768019      -1.51324326       1.31619083       0.00000000
Si      -1.35019522       1.45551150      -1.39590278       0.00000000
Si       1.63832650       0.92382219       1.73372635       0.00000000
Si      -2.18223955       0.15143184       2.74150090       0.00000000
Si       2.53945672       2.58367545       0.11100653       0.00000000
Si       2.57568568      -2.79487530      -0.02793178       0.00000000
Si      -0.00280045      -2.61346986      -2.77131996       0.00000000
Si      -2.76092551      -2.69863398      -0.02964749       0.00000000
Si      -0.28080559       1.42969185       3.58587110       0.00000000
