10
Lattice="16.28999089631971 0.0 0.0 0.0 16.28999089631971 0.0 0.0 0.0 34.31420841018396" Properties=species:S:1:pos:R:3:initial_magmoms:R:1 pbc="T T T"
Si       0.72021348      -0.10223604      -2.26432725       0.00000000
Si       1.79385480      -0.28642707       1.56328758       0.00000000
Si      -1.60910991      -1.77461631       0.14377661       0.00000000
Si      -0.85809204       2.17688157       0.75254533       0.00000000
Si       0.40197204      -1.04526414       3.33331838       0.00000000
Si       1.21212261       2.15342397      -2.55809135       0.00000000
Si      -1.64659320      -1.96169067       2.49766400       0.00000000
Si       0.53281332       3.50663427      -0.75999151       0.00000000
Si      -3.10738266       2.11768371       0.19023808       0.00000000
Si       2.28334391      -1.94637807      -2.29850422       0.00000000
