10
Lattice="16.28999089631971 0.0 0.0 0.0 16.28999089631971 0.0 0.0 0.0 34.31420841018396" Properties=species:S:1:pos:R:3:initial_magmoms:R:1 pbc="T T T"
Si      -1.92741651      -0.81342486      -1.14705600       0.00000000
Si       0.84233961       1.92524994      -1.15937481       0.00000000
Si       1.94468391      -1.42791624       0.08231983       0.00000000
Si      -1.35042471      -0.84442473       2.00789703       0.00000000
Si      -0.39851856      -1.96877682      -2.61014604       0.00000000
Si       2.32603281       0.76957218      -2.61306274       0.00000000
Si       1.05948531      -3.22858026      -1.23002780       0.00000000
Si      -0.22514409      -3.00144879       2.11759961       0.00000000
Si      -3.20404752      -1.91480805       0.63869072       0.00000000
Si       3.72522719      -0.51668622      -1.20631667       0.00000000
