10
Lattice="16.28999089631971 0.0 0.0 0.0 16.28999089631971 0.0 0.0 0.0 34.31420841018396" Properties=species:S:1:pos:R:3:initial_magmoms:R:1 pbc="T T T"
Si      -0.78477075       2.13180714       0.67846091       0.00000000
Si      -1.72428510      -1.32488199      -0.99099489       0.00000000
Si       1.52821377       0.34375158      -1.81995800       0.00000000
Si       0.44947368      -0.89391375       2.19724294       0.00000000
Si       0.69954147       2.54075130      -2.55013045       0.00000000
Si       3.60502587       0.21616830      -0.71033883       0.00000000
Si       0.61945983       3.72920454      -0.36331904       0.00000000
Si      -2.99667582       2.40567462      -0.21127270       0.00000000
Si      -1.01020806      -3.52593792      -1.31598494       0.00000000
Si      -0.58834593       2.41116435       3.00774499       0.00000000
