10
Lattice="16.28999089631971 0.0 0.0 0.0 16.28999089631971 0.0 0.0 0.0 34.31420841018396" Properties=species:S:1:pos:R:3:initial_magmoms:R:1 pbc="T T T"
Si      -1.35551859       1.35467640      -1.35819144       0.00000000
Si      -1.35578086      -1.35740986       1.35675024       0.00000000
Si       1.35946566       1.35760860       1.35633847       0.00000000
Si       1.36111095      -1.35591281      -1.36512292       0.00000000
Si      -2.69497785      -0.02106297      -2.71889125       0.00000000
Si      -2.71306746       0.00011403       2.71422109       0.00000000
Si       0.00223173       2.71524978       2.71411815       0.00000000
Si      -2.71452614       2.71510317       0.00003431       0.00000000
Si       0.00197109      -2.71524635       2.71456423       0.00000000
Si      -2.71447185      -2.71601826       0.00051471       0.00000000
