10
Lattice="16.28999089631971 0.0 0.0 0.0 16.28999089631971 0.0 0.0 0.0 34.31420841018396" Properties=species:S:1:pos:R:3:initial_magmoms:R:1 pbc="T T T"
Si      -1.32865312       1.22595282      -1.47526816       0.00000000
Si      -1.36387536      -1.35123921       1.34700500       0.00000000
Si       1.34816040       1.36124127       1.35613259       0.00000000
Si       1.40499621      -1.27171143      -1.39557336       0.00000000
Si      -2.28613045      -0.76072671      -2.57608848       0.00000000
Si       0.37224279       1.94546583      -3.01911814       0.00000000
Si      -0.27857529      -2.38291749      -2.73245708       0.00000000
Si       2.34517356       0.30941226      -2.98483822       0.00000000
Si       2.70361872       0.00542457       2.70893670       0.00000000
Si      -0.00938304      -2.71003698       2.70982887       0.00000000
