10
Lattice="16.28999089631971 0.0 0.0 0.0 16.28999089631971 0.0 0.0 0.0 34.31420841018396" Properties=species:S:1:pos:R:3:initial_magmoms:R:1 pbc="T T T"
Si      -1.40423058      -1.59739740       1.04177995       0.00000000
Si      -0.76325166       2.18023731       0.65948514       0.00000000
Si       2.28248964      -0.10570581       0.82879154       0.00000000
Si       0.08008164      -1.18845324      -2.18681141       0.00000000
Si       1.87190019       1.05208965       2.86300758       0.00000000
Si       0.92137869       3.00094380       2.04330931       0.00000000
Si       0.90875394      -3.38545296      -1.45663896       0.00000000
Si      -0.61945983      -3.72920454       0.36331904       0.00000000
Si      -1.20780576      -1.31804019       3.37106403       0.00000000
Si      -3.61613565      -1.32352992       0.15204634       0.00000000
