10
Lattice="16.28999089631971 0.0 0.0 0.0 16.28999089631971 0.0 0.0 0.0 34.31420841018396" Properties=species:S:1:pos:R:3:initial_magmoms:R:1 pbc="T T T"
Si      -0.70402841       2.18447271       0.68124036       0.00000000
Si       2.21190507      -0.27386748       0.88973361       0.00000000
Si      -1.62873026      -1.70165340       0.54991981       0.00000000
Si      -0.50191838       0.05882319      -2.48987467       0.00000000
Si      -2.34806408       1.94339700       2.30574452       0.00000000
Si      -3.30816410      -1.60179570      -1.12471744       0.00000000
Si       2.99667582      -2.40567462       0.21127270       0.00000000
Si       3.61613565       1.32352992      -0.15204634       0.00000000
Si      -1.81137374       2.25249975      -2.64521518       0.00000000
Si       0.95204461       3.28463415       1.91675844       0.00000000
