10
Lattice="16.28999089631971 0.0 0.0 0.0 16.28999089631971 0.0 0.0 0.0 34.31420841018396" Properties=species:S:1:pos:R:3:initial_magmoms:R:1 pbc="T T T"
Si      -1.83457558       0.05786208      -1.45711936       0.00000000
Si       1.76550531       0.34052616      -1.55213546       0.00000000
Si       0.39824652      -1.67949900       1.64272502       0.00000000
Si      -0.98531272       1.89240930       1.09397189       0.00000000
Si       1.07079383       2.97839844       0.87322846       0.00000000
Si      -3.22548094      -1.27189062       0.05541748       0.00000000
Si       1.96507410       2.67276546      -1.26101355       0.00000000
Si      -1.72144153       0.82254726       3.04919658       0.00000000
Si      -1.15526629      -1.29534822      -3.25521920       0.00000000
Si       1.04577076      -0.57187674      -3.59112117       0.00000000
