10
Lattice="16.28999089631971 0.0 0.0 0.0 16.28999089631971 0.0 0.0 0.0 34.31420841018396" Properties=species:S:1:pos:R:3:initial_magmoms:R:1 pbc="T T T"
Si      -0.73036119      -1.57193613       1.55216977       0.00000000
Si      -1.74138375       1.37819916      -0.70179458       0.00000000
Si       0.37830430      -1.12384710      -2.10826614       0.00000000
Si       1.33876921       1.94163768       0.96169054       0.00000000
Si       2.65646731      -1.52179551      -1.72428994       0.00000000
Si       2.44671728       2.45048841      -1.16266897       0.00000000
Si      -2.26709463       2.73984768       1.14918348       0.00000000
Si      -1.00525494       2.44806120      -2.65701927       0.00000000
Si      -0.01994222       0.55565190      -3.75099116       0.00000000
Si       0.14434569      -1.19210220       3.63939996       0.00000000
