10
Lattice="16.28999089631971 0.0 0.0 0.0 16.28999089631971 0.0 0.0 0.0 34.31420841018396" Properties=species:S:1:pos:R:3:initial_magmoms:R:1 pbc="T T T"
Si       1.36426958      -1.30718877       1.39648612       0.00000000
Si      -1.34822264      -1.36351928      -1.36330426       0.00000000
Si       1.36765790       1.35380651      -1.35815713       0.00000000
Si      -1.53661194       1.12419896       1.41062358       0.00000000
Si      -0.05818625       2.45545034       2.79156536       0.00000000
Si      -2.70602217       2.69128067       0.00868150       0.00000000
Si       2.69755721      -2.71570331      -0.00741187       0.00000000
Si      -2.70600588      -2.70879635       0.00432359       0.00000000
Si      -2.70602217      -0.00338017      -2.71926528       0.00000000
Si       0.00725394       2.71205042      -2.71861331       0.00000000
