10
Lattice="16.28999089631971 0.0 0.0 0.0 16.28999089631971 0.0 0.0 0.0 34.31420841018396" Properties=species:S:1:pos:R:3:initial_magmoms:R:1 pbc="T T T"
Si      -0.77986746       0.54345069       2.13825678       0.00000000
Si       0.87053760      -1.80314010      -1.33945587       0.00000000
Si      -1.84793271       1.20404277      -1.17471327       0.00000000
Si       2.55358782       0.16109181       0.31984292       0.00000000
Si       0.78459156       2.34204588       2.37756420       0.00000000
Si       2.00661849      -0.32623983      -2.80724696       0.00000000
Si       2.84565123       1.52464626      -1.62738656       0.00000000
Si      -0.59976522       2.57523692      -2.64806326       0.00000000
Si       2.91981960       1.40481702       2.17006607       0.00000000
Si       1.26433206       3.43271744      -1.50766422       0.00000000
