10
Lattice="16.28999089631971 0.0 0.0 0.0 16.28999089631971 0.0 0.0 0.0 34.31420841018396" Properties=species:S:1:pos:R:3:initial_magmoms:R:1 pbc="T T T"
Si      -1.50579873       1.19058723       1.36560332       0.00000000
Si       1.34667801       1.36748034      -1.37479953       0.00000000
Si      -1.37016819      -1.34579835      -1.37449070       0.00000000
Si       1.49980401      -1.27969353       1.46439398       0.00000000
Si       2.71577106      -2.68718700      -0.00998544       0.00000000
Si       2.71072116       2.71301805       0.00977955       0.00000000
Si       2.69949735       0.00990432      -2.73573611       0.00000000
Si      -2.72832576       2.70876636      -0.02100031       0.00000000
Si      -2.73782609      -2.69960486      -0.01633357       0.00000000
Si      -0.01624113      -2.70489586      -2.73477531       0.00000000
