10
Lattice="16.28999089631971 0.0 0.0 0.0 16.28999089631971 0.0 0.0 0.0 34.31420841018396" Properties=species:S:1:pos:R:3:initial_magmoms:R:1 pbc="T T T"
Si       1.24816749       1.37119415      -1.47334999       0.00000000
Si      -1.31589056       1.30795668       1.53676268       0.00000000
Si      -1.42291358      -1.31667183      -1.45876644       0.00000000
Si       1.84793271      -1.20404277       1.17471327       0.00000000
Si       1.06806525      -0.66059208       3.31297005       0.00000000
Si      -1.24027987      -0.05561406       3.59928796       0.00000000
Si       0.00488048       3.42561500       1.70394160       0.00000000
Si       3.11226477       2.22867467      -0.33295095       0.00000000
Si       2.58145512      -0.03732039      -2.87724798       0.00000000
Si      -2.97811729       2.48272047       0.15510031       0.00000000
