10
Lattice="16.28999089631971 0.0 0.0 0.0 16.28999089631971 0.0 0.0 0.0 34.31420841018396" Properties=species:S:1:pos:R:3:initial_magmoms:R:1 pbc="T T T"
Si      -0.89428028       0.30563298       2.13424201       0.00000000
Si      -0.19956879      -2.33223930      -0.29112191       0.00000000
Si       2.18077488       0.52070985       0.74698642       0.00000000
Si      -0.47429964       1.21577157      -1.97711717       0.00000000
Si       2.80228725      -1.73045412       1.30672010       0.00000000
Si      -1.96507410      -2.67276546       1.26101355       0.00000000
Si       3.00931686       1.49191965      -1.24447409       0.00000000
Si      -1.25816467       2.60489385       2.22016484       0.00000000
Si       1.59474213       1.12044249      -3.09744238       0.00000000
Si      -2.08411605       0.11126070      -3.23607186       0.00000000
