10
Lattice="10.86 0.0 0.0 0.0 10.86 0.0 0.0 0.0 10.86" Properties=species:S:1:pos:R:3:initial_magmoms:R:1 pbc="T T T"
Si      -1.33295640       1.26665610      -1.44904980       0.00000000
Si      -2.66745492      -0.07473852      -2.64280272       0.00000000
Si       2.60648688       0.01874436      -2.70676812       0.00000000
Si       2.59283586      -2.72015850      -0.12884304       0.00000000
Si      -0.02006928       2.62594800      -2.74881804       0.00000000
Si      -0.02142678       2.73409188       2.67851040       0.00000000
Si      -2.63564598       0.14259180       2.80363932       0.00000000
Si      -2.78728416       2.70850572      -0.11587620       0.00000000
Si       0.09991200      -2.72947638       2.76830088       0.00000000
Si       2.85345414       2.69838420       0.02314266       0.00000000
