10
Lattice="10.86 0.0 0.0 0.0 10.86 0.0 0.0 0.0 10.86" Properties=species:S:1:pos:R:3:initial_magmoms:R:1 pbc="T T T"
Si       1.41084432       1.24039662       1.26376734       0.00000000
Si      -1.30415568      -1.47460338       1.26376734       0.00000000
Si      -1.20792522       1.40602248      -1.60104636       0.00000000
Si       1.41084432      -1.47460338      -1.45123266       0.00000000
Si      -2.31011748       2.60026410      -0.02599884       0.00000000
Si       0.05334432       2.59789662       2.62126734       0.00000000
Si      -2.66165568      -0.11710338       2.62126734       0.00000000
Si      -2.65695330      -0.29735766      -2.69964396       0.00000000
Si       2.76834432      -0.11710338       2.62126734       0.00000000
Si       2.69759142      -0.28318536      -2.71440270       0.00000000
