10
Lattice="16.2900001489832 0.0 0.0 0.0 16.2900001489832 0.0 0.0 0.0 29.27137083596932" Properties=species:S:1:pos:R:3:initial_magmoms:R:1 pbc="T T T"
Si       1.29955105      -1.47054523      -1.31990465       0.00000000
Si       1.33897285       1.21946322       1.53493800       0.00000000
Si      -0.87900841       1.91619467      -1.11960066       0.00000000
Si      -1.29966508      -1.35456043       1.48656120       0.00000000
H       -2.77298157      -1.20119008      -1.97447105       0.00000000
Si       2.71707428       2.49810606       0.14712318       0.00000000
Si       2.62897796      -2.70726575       0.20069564       0.00000000
Si       0.91035037       3.59382034      -0.88823975       0.00000000
Si      -2.74380618       2.68641846       0.16550706       0.00000000
Si      -0.11300373      -3.10477433      -2.27833715       0.00000000
