10
Lattice="16.2900001489832 0.0 0.0 0.0 16.2900001489832 0.0 0.0 0.0 29.27137083596932" Properties=species:S:1:pos:R:3:initial_magmoms:R:1 pbc="T T T"
Si      -1.37810143      -1.27864284       1.38781482       0.00000000
Si      -1.80672392       1.09571428      -1.03536293       0.00000000
Si       1.37140624       1.49113774       1.25968818       0.00000000
Si       0.86273470      -1.02243534      -2.02028601       0.00000000
H        0.00242721      -0.22522554      -2.97991863       0.00000000
Si      -0.63588016       2.40078764      -2.63047701       0.00000000
Si      -2.71707428      -2.49810606      -0.14712318       0.00000000
H        2.60553665      -2.43341000      -1.04481758       0.00000000
Si      -0.01563840      -2.54665808       2.81273344       0.00000000
Si       2.66418065       0.19223829       2.74511658       0.00000000
