10
Lattice="16.2900001489832 0.0 0.0 0.0 16.2900001489832 0.0 0.0 0.0 29.27137083596932" Properties=species:S:1:pos:R:3:initial_magmoms:R:1 pbc="T T T"
Si      -1.39911553       1.34861653      -1.41044100       0.00000000
Si       1.39103732      -1.27975870      -1.48452684       0.00000000
Si      -0.91036666      -1.91847169       1.13473396       0.00000000
Si       1.35907471       1.54965142       1.27769534       0.00000000
H       -1.31672071       1.47362599       2.80241177       0.00000000
Si       2.70897815      -2.58204810       0.00614699       0.00000000
Si       2.63743247       2.70075170      -0.32745883       0.00000000
Si       0.82214653      -3.58707432       1.00157850       0.00000000
Si      -2.65367360      -2.81085761      -0.22105739       0.00000000
Si      -0.10160073       2.63466317      -2.91794587       0.00000000
