10
Lattice="16.2900001489832 0.0 0.0 0.0 16.2900001489832 0.0 0.0 0.0 29.27137083596932" Properties=species:S:1:pos:R:3:initial_magmoms:R:1 pbc="T T T"
Si      -1.02677337       0.49508406       2.05476242       0.00000000
Si       0.81739800      -2.24686506       0.21985727       0.00000000
Si       1.72416782       1.76658373      -0.08310142       0.00000000
Si      -1.93749841      -0.17338262      -1.54907022       0.00000000
Si      -1.14512022      -3.58132558       0.81866170       0.00000000
H       -1.61744878       2.80687943      -2.11813494       0.00000000
Si       0.99660755      -3.26218819      -1.88507628       0.00000000
Si      -1.87911505      -1.32220393       3.16338632       0.00000000
Si      -2.69970752       2.14752538       1.91575268       0.00000000
H       -1.77033043      -2.97563080      -1.94754139       0.00000000
