10
Lattice="16.2900001489832 0.0 0.0 0.0 16.2900001489832 0.0 0.0 0.0 29.27137083596932" Properties=species:S:1:pos:R:3:initial_magmoms:R:1 pbc="T T T"
Si      -2.14216499       0.77821077       0.37824465       0.00000000
Si       0.20756490      -0.75742636       2.24266764       0.00000000
Si       0.06679845      -0.99442958      -2.16210054       0.00000000
Si      -0.47268433       2.43235115      -0.54696484       0.00000000
H        2.54753057      -1.61384054       0.03726246       0.00000000
H        1.12033922      -1.98583898       2.29994967       0.00000000
Si       0.34674829       2.14844902      -2.77928739       0.00000000
Si       1.14387013       3.54816729       0.77858919       0.00000000
Si       1.28327995       0.87782412       3.55657401       0.00000000
Si       2.28407240      -1.07053646      -3.09260814       0.00000000
