10
Lattice="16.2900001489832 0.0 0.0 0.0 16.2900001489832 0.0 0.0 0.0 29.27137083596932" Properties=species:S:1:pos:R:3:initial_magmoms:R:1 pbc="T T T"
Si      -1.29189475      -1.30505707       1.44327441       0.00000000
Si       1.12024702      -1.77712499      -1.06339407       0.00000000
Si       1.50710194       1.40980177       1.14205151       0.00000000
Si      -1.09806004       0.91237033      -1.92517250       0.00000000
Si       0.86266954       1.35451351      -3.11057520       0.00000000
Si       2.29109078      -0.47205162      -2.65850815       0.00000000
Si      -2.53390952      -2.68452686      -0.00964726       0.00000000
Si      -0.66911176      -3.45475065      -1.29475498       0.00000000
Si      -2.58750362       0.12243564       2.75710818       0.00000000
Si       0.19565919       2.73719243       2.62597244       0.00000000
