10
Lattice="16.2900001489832 0.0 0.0 0.0 16.2900001489832 0.0 0.0 0.0 29.27137083596932" Properties=species:S:1:pos:R:3:initial_magmoms:R:1 pbc="T T T"
Si       1.70851151       0.94597660       1.27145468       0.00000000
Si      -0.96699070      -1.78157216       1.19748593       0.00000000
Si       1.49931532      -0.19508904      -1.85051265       0.00000000
Si      -1.77787433       1.67531249      -0.00795596       0.00000000
Si       0.30511170       1.81268606      -2.66817912       0.00000000
Si       0.39726423       2.29954529       2.64249642       0.00000000
Si      -2.28206612      -0.48729906       2.66807960       0.00000000
Si       3.04709340       2.21019464      -0.18914633       0.00000000
Si      -2.03089061       2.25649082      -2.23505065       0.00000000
Si      -2.73331541      -2.66761784      -0.07423776       0.00000000
