10
Lattice="16.2900001489832 0.0 0.0 0.0 16.2900001489832 0.0 0.0 0.0 29.27137083596932" Properties=species:S:1:pos:R:3:initial_magmoms:R:1 pbc="T T T"
Si      -1.33053463      -1.33473745      -1.40774804       0.00000000
Si       1.39043296      -1.27244449       1.42422782       0.00000000
Si      -1.30422628       1.32315526       1.47319882       0.00000000
Si       1.37645614       1.33740901      -1.40204012       0.00000000
Si       0.66518587       2.16275816       2.44099816       0.00000000
Si       2.43972074       0.56783683       2.55451253       0.00000000
Si      -2.67734297       0.13996368      -2.65008356       0.00000000
Si       2.72526815      -2.62904312      -0.02063632       0.00000000
Si      -2.71989245      -2.64896579       0.00597136       0.00000000
Si       0.03235194      -2.72834696       2.73107744       0.00000000
