10
Lattice="16.2900001489832 0.0 0.0 0.0 16.2900001489832 0.0 0.0 0.0 29.27137083596932" Properties=species:S:1:pos:R:3:initial_magmoms:R:1 pbc="T T T"
Si       1.30243438      -1.28296783       1.44837670       0.00000000
Si      -1.47325132       0.98134219       1.52989747       0.00000000
Si      -1.35439948      -1.31750263      -1.40367932       0.00000000
Si       1.35808102       1.45590247      -1.30684962       0.00000000
H        0.34533171      -2.34136172       1.98348663       0.00000000
Si      -2.60011208       2.60462441       0.15411377       0.00000000
Si       2.71539641      -2.56709225       0.07669099       0.00000000
Si       0.02311551      -2.68698665      -2.73991740       0.00000000
Si       1.82078219       0.03416013       3.38924421       0.00000000
Si       2.69291621       0.09930384      -2.75171376       0.00000000
