10
Lattice="16.2900001489832 0.0 0.0 0.0 16.2900001489832 0.0 0.0 0.0 29.27137083596932" Properties=species:S:1:pos:R:3:initial_magmoms:R:1 pbc="T T T"
Si       1.47325132      -0.98134219      -1.52989747       0.00000000
Si      -1.85134223      -1.18876276       0.92895622       0.00000000
Si      -1.12686076       1.62328222      -1.37578370       0.00000000
Si       1.18982161       0.26847549       2.10786069       0.00000000
Si      -2.22650093       2.55609650       0.45707246       0.00000000
Si       2.77568571      -2.26431002      -0.08152077       0.00000000
Si      -3.25329222       0.67730563       1.40048874       0.00000000
H       -1.26271936       3.04965093       1.48408777       0.00000000
Si       0.11885184      -2.29884482      -2.93357679       0.00000000
H        1.81858304      -3.32270391       0.45358916       0.00000000
