10
Lattice="16.2900001489832 0.0 0.0 0.0 16.2900001489832 0.0 0.0 0.0 29.27137083596932" Properties=species:S:1:pos:R:3:initial_magmoms:R:1 pbc="T T T"
Si      -1.25714818      -1.63409878      -1.04203153       0.00000000
Si       1.96072958       0.44214318      -1.18540270       0.00000000
Si      -1.36189288       1.92262727      -0.22307712       0.00000000
Si       1.09806004      -0.91237033       1.92517250       0.00000000
Si       2.21830706      -2.68949531       0.86177843       0.00000000
Si      -1.84347416       2.42160626       2.06562239       0.00000000
Si      -2.86868532      -2.32249790       0.51687387       0.00000000
Si       3.38915082      -1.38442195      -0.73333565       0.00000000
Si      -1.89609086      -0.80365087      -3.11672775       0.00000000
Si      -0.82165132       2.78218542      -2.46365420       0.00000000
