10
Lattice="16.2900001489832 0.0 0.0 0.0 16.2900001489832 0.0 0.0 0.0 29.27137083596932" Properties=species:S:1:pos:R:3:initial_magmoms:R:1 pbc="T T T"
Si      -1.33858189      -1.26421804       1.46060101       0.00000000
Si       1.41551956       1.29124315       1.36435382       0.00000000
Si       0.86350033      -1.52987536      -1.56825409       0.00000000
Si      -1.32942691       1.23672052      -1.52060030       0.00000000
Si      -1.54777807      -2.40528368      -1.66136632       0.00000000
Si       0.30206547       2.06187419      -3.01958720       0.00000000
Si       1.48543624      -0.03759732      -3.40075899       0.00000000
Si      -2.74198170      -0.39750858      -2.47903279       0.00000000
Si      -3.04709340      -2.21019464       0.18914633       0.00000000
Si      -2.62897796       2.70726575      -0.20069564       0.00000000
