10
Lattice="16.2900001489832 0.0 0.0 0.0 16.2900001489832 0.0 0.0 0.0 29.27137083596932" Properties=species:S:1:pos:R:3:initial_magmoms:R:1 pbc="T T T"
Si      -0.49311459      -1.06090255       0.97725399       0.00000000
Si      -0.84717775      -0.38063214      -2.84377222       0.00000000
Si      -0.66728728       0.16180857       2.93834802       0.00000000
Si       2.16815015       1.75482398      -1.31042073       0.00000000
H       -0.89759530       2.44737704      -1.75598954       0.00000000
Si       0.14509503       1.76770937      -2.64261936       0.00000000
Si       3.17557263      -0.28178442      -0.30828608       0.00000000
Si      -2.78560632      -0.71030917      -1.48195096       0.00000000
Si       0.80368345      -3.04256478       0.81128531       0.00000000
H       -2.56189574       1.81581374       0.90267053       0.00000000
