10
Lattice="16.2900001489832 0.0 0.0 0.0 16.2900001489832 0.0 0.0 0.0 29.27137083596932" Properties=species:S:1:pos:R:3:initial_magmoms:R:1 pbc="T T T"
Si      -1.41255478      -1.63422910      -0.95843250       0.00000000
Si       1.63149238       0.82515367      -1.49898690       0.00000000
Si      -1.29955105       1.47054523       1.31990465       0.00000000
Si       1.32942691      -1.23672052       1.52060030       0.00000000
Si       2.19292724      -2.76659589      -0.04765379       0.00000000
Si       2.81486316      -1.27431784      -1.88015869       0.00000000
Si      -0.21835116      -3.64200420      -0.14076602       0.00000000
Si       2.28025793       2.94621594      -0.55325818       0.00000000
Si      -2.59921613       0.11598480       2.80646586       0.00000000
H       -0.81513532       1.56527842      -3.42580416       0.00000000
