10
Lattice="16.2900001489832 0.0 0.0 0.0 16.2900001489832 0.0 0.0 0.0 29.27137083596932" Properties=species:S:1:pos:R:3:initial_magmoms:R:1 pbc="T T T"
H        1.02882754      -0.79288318       0.79032701       0.00000000
Si      -0.64177714      -1.45362187      -1.78116292       0.00000000
Si       0.35157078       2.37210095       0.09785419       0.00000000
Si      -2.21727395       0.07610688       0.93050761       0.00000000
H        0.26345817      -0.54330408       3.12987060       0.00000000
H        2.69312798      -0.16131987      -1.86833306       0.00000000
H        3.52085547       0.75261918       0.35863284       0.00000000
Si      -2.81569395      -2.20942901       0.84041033       0.00000000
Si      -3.27500679       1.58843954      -0.88466864       0.00000000
Si       0.80511697      -3.31900608      -1.59429448       0.00000000
