10
Lattice="16.2900001489832 0.0 0.0 0.0 16.2900001489832 0.0 0.0 0.0 29.27137083596932" Properties=species:S:1:pos:R:3:initial_magmoms:R:1 pbc="T T T"
Si      -0.51552963       0.73775782      -2.16637416       0.00000000
Si       0.87900841      -1.91619467       1.11960066       0.00000000
Si      -1.86479777       0.77022379       1.28510773       0.00000000
Si       1.78935878       1.67762567       0.23136092       0.00000000
H        0.78196888       1.09463914      -2.86007637       0.00000000
Si       2.21798126      -0.69673145       2.65453866       0.00000000
Si      -0.62278300       2.14969358       2.73802939       0.00000000
Si      -1.68609647       2.73302220      -1.67244904       0.00000000
H       -1.89397316      -3.11738475      -0.85487039       0.00000000
Si       0.66911176       3.45475065       1.29475498       0.00000000
