10
Lattice="16.2900001489832 0.0 0.0 0.0 16.2900001489832 0.0 0.0 0.0 29.27137083596932" Properties=species:S:1:pos:R:3:initial_magmoms:R:1 pbc="T T T"
H        1.01146240       1.12063798      -0.17914079       0.00000000
Si      -1.68580325       0.98611516      -1.28185187       0.00000000
Si       1.03933459      -1.72854821      -1.28188114       0.00000000
Si       0.13317075      -0.11906361       2.39015379       0.00000000
H        2.92091106       0.27649017       1.30392249       0.00000000
Si       1.42565194      -2.10297386       2.33980703       0.00000000
Si      -0.36292491       2.27734202      -2.75308951       0.00000000
Si       2.27108666      -0.35499168      -2.78154129       0.00000000
Si       2.57439017      -2.52885962       0.35895482       0.00000000
Si       3.10674738       1.55237185      -1.60550542       0.00000000
