10
Lattice="16.2900001489832 0.0 0.0 0.0 16.2900001489832 0.0 0.0 0.0 29.27137083596932" Properties=species:S:1:pos:R:3:initial_magmoms:R:1 pbc="T T T"
Si       0.94177378       1.61885134      -1.46880812       0.00000000
Si       2.04960782      -0.13377348       1.29022348       0.00000000
Si      -0.41800140      -2.27862893      -0.78347751       0.00000000
Si      -1.89884387       1.41812596       0.61063007       0.00000000
H       -0.75782710      -1.97198597       2.38746082       0.00000000
Si       1.17563302       3.29224161       0.20126995       0.00000000
Si       3.14651127      -1.86729014       0.00523958       0.00000000
Si       3.02449917       2.09249939       1.12100569       0.00000000
Si      -0.96417253       3.60005745       1.24739947       0.00000000
Si      -1.13551075      -2.32832972      -3.05063300       0.00000000
