10
Lattice="16.2900001489832 0.0 0.0 0.0 16.2900001489832 0.0 0.0 0.0 29.27137083596932" Properties=species:S:1:pos:R:3:initial_magmoms:R:1 pbc="T T T"
Si       0.99227278       2.14834151       0.20115286       0.00000000
Si       1.35845569      -1.96240745       0.08699451       0.00000000
Si      -1.24059754       0.27813546      -2.02361768       0.00000000
Si      -1.93842857      -0.32967702       1.36182126       0.00000000
H        0.84717775       0.38063214       2.84377222       0.00000000
H       -0.05041755       2.82800919       1.08778268       0.00000000
Si      -2.57955410      -2.33844581       0.40734040       0.00000000
Si      -2.96491035      -1.25708302      -1.63009337       0.00000000
Si      -0.46439532      -3.61520715       0.34080657       0.00000000
Si       2.53540820      -2.01502415      -1.98635522       0.00000000
