10
Lattice="16.2900001489832 0.0 0.0 0.0 16.2900001489832 0.0 0.0 0.0 29.27137083596932" Properties=species:S:1:pos:R:3:initial_magmoms:R:1 pbc="T T T"
Si      -1.18990306       0.65575396      -0.69027747       0.00000000
H        2.12103947      -0.87513139       0.44032923       0.00000000
Si       0.67002400       0.06674013       2.63462827       0.00000000
Si       0.32718465      -2.38571939       1.96042079       0.00000000
Si      -1.83049103       2.42486426       0.66372833       0.00000000
Si      -0.43420995       1.57100761      -2.69252705       0.00000000
Si      -3.02598156      -0.75543247      -0.56496673       0.00000000
Si      -1.44513478       1.34350147       2.70116210       0.00000000
Si       0.03793941      -3.40130316      -0.32233634       0.00000000
Si       3.43407864      -0.56604493      -0.24140100       0.00000000
