10
Lattice="16.2900001489832 0.0 0.0 0.0 16.2900001489832 0.0 0.0 0.0 29.27137083596932" Properties=species:S:1:pos:R:3:initial_magmoms:R:1 pbc="T T T"
Si       2.07920675      -0.80689258      -0.56733771       0.00000000
Si      -1.21569013      -1.96234229      -0.38143523       0.00000000
Si       0.38364254       1.30908070      -2.00093237       0.00000000
Si       0.54497381      -0.00819387       2.37060051       0.00000000
Si      -2.22786929      -2.05330565       1.71872708       0.00000000
Si       3.38102211       0.60895279       0.77621821       0.00000000
Si      -2.93883006      -1.18226305      -1.77724055       0.00000000
Si       0.16447231      -0.27821691      -3.75092127       0.00000000
Si       2.30658257      -2.97688350       0.12314466       0.00000000
Si       0.22494405       2.20503071       3.08373892       0.00000000
