10
Lattice="16.2900001489832 0.0 0.0 0.0 16.2900001489832 0.0 0.0 0.0 29.27137083596932" Properties=species:S:1:pos:R:3:initial_magmoms:R:1 pbc="T T T"
Si      -0.87462640       0.56426932       2.12908243       0.00000000
Si       1.79463674      -1.44135550       0.73096467       0.00000000
Si       1.49304367       1.76630517      -0.78151633       0.00000000
Si      -2.28829216       0.04375494      -1.13087014       0.00000000
H        0.62110513      -1.94608487      -2.03500424       0.00000000
Si      -0.47860020       2.93905812       2.18926437       0.00000000
Si       0.42401241       3.67059315       0.08620419       0.00000000
Si       3.41027895       1.47314870       0.66574806       0.00000000
Si      -3.07686663      -0.48793437       2.25945711       0.00000000
Si       3.06287841      -0.14270040       2.34273416       0.00000000
