10
Lattice="16.2900001489832 0.0 0.0 0.0 16.2900001489832 0.0 0.0 0.0 29.27137083596932" Properties=species:S:1:pos:R:3:initial_magmoms:R:1 pbc="T T T"
Si      -1.63149238      -0.82515367       1.49898690       0.00000000
Si      -0.94539016       0.71214668      -2.06966155       0.00000000
Si       0.64876555       2.12106228       0.94572872       0.00000000
Si       1.18337077      -2.09947151      -0.38117179       0.00000000
H       -0.21154194       2.91827208      -0.01390390       0.00000000
H        2.39156750       0.71008762       1.92119715       0.00000000
H       -2.44662770       0.74012475      -1.92681726       0.00000000
H        2.68920209      -1.81718210      -0.45707246       0.00000000
Si      -0.30206547      -2.06187419       3.01958720       0.00000000
Si      -0.20860974      -0.86636737      -3.70821434       0.00000000
