10
Lattice="16.2900001489832 0.0 0.0 0.0 16.2900001489832 0.0 0.0 0.0 29.27137083596932" Properties=species:S:1:pos:R:3:initial_magmoms:R:1 pbc="T T T"
Si      -2.23659096       0.53414910       0.24866030       0.00000000
Si       0.94929976       1.07649208       1.90805431       0.00000000
Si       0.90261262       0.73153504      -2.10306018       0.00000000
Si      -0.39602619      -2.37478880      -0.06018194       0.00000000
Si       0.47860020      -2.93905812      -2.18926437       0.00000000
Si       0.48369897      -3.12067533       1.99302910       0.00000000
Si       1.97164388      -1.17275295      -2.97078070       0.00000000
Si      -0.90292213       1.11814561      -3.62309320       0.00000000
Si      -2.67837739       2.79673239       0.54594034       0.00000000
Si       3.01951443      -0.06823881       2.52951478       0.00000000
