10
Lattice="16.2900001489832 0.0 0.0 0.0 16.2900001489832 0.0 0.0 0.0 29.27137083596932" Properties=species:S:1:pos:R:3:initial_magmoms:R:1 pbc="T T T"
Si      -1.40771665       1.28296294      -1.34228554       0.00000000
Si       1.29938815       1.40614467       1.35582063       0.00000000
Si       1.21798702      -1.33485148      -1.50101833       0.00000000
Si      -1.46067544      -1.42711804       1.19321816       0.00000000
Si      -2.34476633      -0.48423654      -2.56048097       0.00000000
Si      -0.62964109      -2.21001545      -2.74404583       0.00000000
Si      -0.04781115       2.51305832      -2.78386016       0.00000000
Si       2.62011620       2.68403816      -0.14935717       0.00000000
Si      -2.74028753       0.00909177       2.58630124       0.00000000
Si       2.60195285      -2.73738792      -0.17986965       0.00000000
