10
Lattice="16.2900001489832 0.0 0.0 0.0 16.2900001489832 0.0 0.0 0.0 29.27137083596932" Properties=species:S:1:pos:R:3:initial_magmoms:R:1 pbc="T T T"
Si       1.17695251      -0.05261670      -2.07334974       0.00000000
Si      -1.35845569       1.96240745      -0.08699451       0.00000000
Si      -1.82285102      -1.65279971       0.25381206       0.00000000
Si       1.72962335      -0.12067632       1.81172223       0.00000000
H       -0.37183554      -2.59467122      -1.94048699       0.00000000
Si      -1.28839240      -2.03429522       2.50036050       0.00000000
Si       0.94120363      -2.28558476      -2.62221721       0.00000000
Si       0.29240550      -0.69952519       3.56806302       0.00000000
H       -0.51127794       2.34303959       2.75677771       0.00000000
H       -2.49287501      -1.71953984      -2.38081622       0.00000000
