10
Lattice="16.2900001489832 0.0 0.0 0.0 16.2900001489832 0.0 0.0 0.0 29.27137083596932" Properties=species:S:1:pos:R:3:initial_magmoms:R:1 pbc="T T T"
Si      -0.96378157      -0.49355442      -1.02701532       0.00000000
Si      -0.62110513       1.94608487       2.03500424       0.00000000
Si       1.17353161       0.50472936       2.76596892       0.00000000
Si      -1.99057286      -2.37234530      -0.08359904       0.00000000
Si      -2.73018774       0.97451668      -1.20079945       0.00000000
Si       2.82973593      -0.51482916       1.30878153       0.00000000
Si       0.13585860      -1.42636870      -2.85987147       0.00000000
H        1.91036090       2.29763936      -1.49562069       0.00000000
Si       1.26271936      -3.04965093      -1.48408777       0.00000000
Si      -2.90939728       1.98983981       0.90413410       0.00000000
