10
Lattice="16.2900001489832 0.0 0.0 0.0 16.2900001489832 0.0 0.0 0.0 29.27137083596932" Properties=species:S:1:pos:R:3:initial_magmoms:R:1 pbc="T T T"
Si       1.22790763      -1.54326574      -1.26484521       0.00000000
Si       1.29873655       1.34628706       1.46033698       0.00000000
Si      -1.10135062       1.56835234      -1.41374867       0.00000000
Si      -1.36044307      -1.43268922       1.36958402       0.00000000
Si      -0.38864682      -2.65908188      -2.59039923       0.00000000
Si      -2.67157631       2.63839358       0.02337500       0.00000000
Si       2.66074346      -2.81766504       0.13380617       0.00000000
Si      -0.10788867       2.57935862       2.91261556       0.00000000
Si       2.60714936      -0.01070253       2.90056161       0.00000000
Si       2.25311879       3.20083842       0.28390332       0.00000000
