10
Lattice="16.2900001489832 0.0 0.0 0.0 16.2900001489832 0.0 0.0 0.0 29.27137083596932" Properties=species:S:1:pos:R:3:initial_magmoms:R:1 pbc="T T T"
Si       0.37719495       2.26634627       0.68500862       0.00000000
Si      -1.18982161      -0.26847549      -2.10786069       0.00000000
Si       2.10421190      -1.21565755      -0.24851394       0.00000000
Si      -1.10895805      -1.29323053       1.77519156       0.00000000
Si      -3.04116384      -1.45723825      -1.17890446       0.00000000
Si       1.92349064       1.88004521       2.41731762       0.00000000
Si       1.58586409      -2.53278551      -2.18938145       0.00000000
H       -2.45254097       2.78117544      -0.62377291       0.00000000
Si       0.43179903       0.57684520       3.69852552       0.00000000
Si      -2.40070619      -2.87432166       0.56689864       0.00000000
