10
Lattice="16.2900001489832 0.0 0.0 0.0 16.2900001489832 0.0 0.0 0.0 29.27137083596932" Properties=species:S:1:pos:R:3:initial_magmoms:R:1 pbc="T T T"
Si       0.01260846      -1.12739833      -1.03178655       0.00000000
Si      -1.06065820      -2.83786464       0.15788977       0.00000000
Si      -0.96783778      -0.12478140      -2.91457967       0.00000000
Si       2.20426508      -1.59361813      -1.68322091       0.00000000
Si      -2.75791332       1.65556901       0.54599888       0.00000000
Si      -2.32251419       0.27811917       2.41096573       0.00000000
Si       1.82487098       0.86512933       2.73131161       0.00000000
Si       2.21399021      -1.43384581       2.14360103       0.00000000
Si      -2.94399399       0.69796135      -1.70587695       0.00000000
Si      -0.35619714       1.04586688       3.47603383       0.00000000
