10
Lattice="16.2900001489832 0.0 0.0 0.0 16.2900001489832 0.0 0.0 0.0 29.27137083596932" Properties=species:S:1:pos:R:3:initial_magmoms:R:1 pbc="T T T"
Si       0.13471830      -1.05541282       2.05771883       0.00000000
Si      -0.83385253      -1.86237056      -1.13947592       0.00000000
Si       1.91585063       0.99745300      -0.96156453       0.00000000
Si      -1.64579501       1.73926703       0.18724896       0.00000000
H        0.56361772       2.05913747       2.27362446       0.00000000
Si      -0.06548580       0.95969278       3.11763517       0.00000000
Si      -2.18934344      -0.53988318      -2.48557845       0.00000000
H        2.32355349       0.64591480       2.36773192       0.00000000
Si       0.64498627       2.28633410      -2.44029564       0.00000000
Si      -3.41772348       0.88712083      -1.09243683       0.00000000
