10
Lattice="16.2900001489832 0.0 0.0 0.0 16.2900001489832 0.0 0.0 0.0 29.27137083596932" Properties=species:S:1:pos:R:3:initial_magmoms:R:1 pbc="T T T"
Si       0.17016534       0.78314176       2.19617241       0.00000000
Si      -0.30538863      -2.34015626      -0.20686078       0.00000000
Si       2.08951832       0.74003842      -0.91844780       0.00000000
Si      -2.07021467       1.14473089      -0.62146047       0.00000000
Si       0.52185015       3.07227774       1.49386441       0.00000000
Si       1.58513104       3.04838031      -0.66557243       0.00000000
Si      -2.02144241       0.94423357       3.02247394       0.00000000
Si       0.52196418      -3.01351971      -2.37604498       0.00000000
Si      -3.56511540       0.94045429       1.28076883       0.00000000
Si      -3.01951443       0.06823881      -2.52951478       0.00000000
