10
Lattice="16.2900001489832 0.0 0.0 0.0 16.2900001489832 0.0 0.0 0.0 29.27137083596932" Properties=species:S:1:pos:R:3:initial_magmoms:R:1 pbc="T T T"
Si       0.44999496       2.28200096       0.11304603       0.00000000
Si      -1.41938029      -1.20221830       1.42250081       0.00000000
Si       1.71642845      -1.61453449       0.15666038       0.00000000
Si      -1.58359978       0.51879480      -1.73318714       0.00000000
Si      -1.80291206       2.86897854       0.60858107       0.00000000
Si       1.00745506       2.55555893      -2.17088195       0.00000000
Si      -3.28743606       1.19182039      -0.23589798       0.00000000
Si       3.42446754      -0.34867116      -0.81020227       0.00000000
Si      -1.70057828      -3.12854340       0.10444025       0.00000000
Si      -0.03466512      -1.92323000       3.17000165       0.00000000
