10
Lattice="16.2900001489832 0.0 0.0 0.0 16.2900001489832 0.0 0.0 0.0 29.27137083596932" Properties=species:S:1:pos:R:3:initial_magmoms:R:1 pbc="T T T"
Si      -1.97584670       0.75624697      -1.14509603       0.00000000
Si       1.90335620       0.16645122      -1.47846767       0.00000000
Si      -0.16980696      -2.43260201       0.33383998       0.00000000
Si       0.28924524       1.01558377       2.28275713       0.00000000
H        2.08310006       2.52617177       0.76266557       0.00000000
H       -0.03793941       3.40130316       0.32233634       0.00000000
Si       2.42225786      -0.50505516       2.44916487       0.00000000
Si       3.48553875      -0.52895259       0.28972803       0.00000000
Si      -2.13615659       1.32942691       2.83174169       0.00000000
Si      -1.66470770      -2.63687861       2.23606929       0.00000000
