10
Lattice="16.2900001489832 0.0 0.0 0.0 16.2900001489832 0.0 0.0 0.0 29.27137083596932" Properties=species:S:1:pos:R:3:initial_magmoms:R:1 pbc="T T T"
Si      -0.36647613       1.43014798      -1.75704331       0.00000000
Si       2.29336682      -0.37634787       0.01671395       0.00000000
Si      -1.71875792      -1.52207245       0.50241381       0.00000000
H       -0.79980643       2.77594635       0.68860900       0.00000000
H       -1.42100929       2.46150047      -1.44012217       0.00000000
Si      -0.49707306      -2.89544979       1.97794152       0.00000000
Si       2.70332715      -0.67748482       2.28785327       0.00000000
Si       2.61339658      -2.58957245      -0.69642446       0.00000000
Si       1.72691921       2.38475828      -2.34106570       0.00000000
Si      -3.43099983      -0.23175783       1.70912607       0.00000000
