10
Lattice="16.2900001489832 0.0 0.0 0.0 16.2900001489832 0.0 0.0 0.0 29.27137083596932" Properties=species:S:1:pos:R:3:initial_magmoms:R:1 pbc="T T T"
Si       1.90677710      -0.41941863      -1.25943000       0.00000000
Si      -1.30181536      -1.41584536      -1.34355592       0.00000000
Si      -0.11639205       2.34787772      -0.30099751       0.00000000
Si      -0.54024156      -0.85955815       2.24057708       0.00000000
Si      -2.83604830      -0.61714666       1.59438230       0.00000000
Si      -3.38102211      -0.60895279      -0.77621821       0.00000000
Si       3.48757500       0.91535140      -0.19172748       0.00000000
Si       2.19077696       2.89701363      -0.02575881       0.00000000
Si      -0.74284030       1.23883822      -3.43944462       0.00000000
Si       1.37231848      -0.03792312      -3.50597844       0.00000000
