10
Lattice="16.2900001489832 0.0 0.0 0.0 16.2900001489832 0.0 0.0 0.0 29.27137083596932" Properties=species:S:1:pos:R:3:initial_magmoms:R:1 pbc="T T T"
Si       1.54367299       0.00377928       1.74170511       0.00000000
Si      -1.46005479       1.83290195       0.41404354       0.00000000
Si      -1.67271097      -1.71058685       0.33650368       0.00000000
Si       1.49490073       0.20427660      -1.90222931       0.00000000
Si      -2.82440910      -0.88249447      -1.53367347       0.00000000
Si       1.73817560       2.33069177       2.18244414       0.00000000
Si       0.36921285      -1.20844108       3.43405868       0.00000000
Si      -3.17713647       1.44656830      -1.14957455       0.00000000
Si      -2.14339912       1.75760957       2.64733205       0.00000000
Si       1.66470770       2.63687861      -2.23606929       0.00000000
