10
Lattice="16.2900001489832 0.0 0.0 0.0 16.2900001489832 0.0 0.0 0.0 29.27137083596932" Properties=species:S:1:pos:R:3:initial_magmoms:R:1 pbc="T T T"
Si       1.46235331       1.78266359       0.56388369       0.00000000
Si       0.50438727      -2.30834189      -0.25287537       0.00000000
Si      -1.06328089       0.02389743       2.15943684       0.00000000
Si      -1.58218255       0.69540382      -1.76819570       0.00000000
Si      -0.08939952       3.36421083      -0.20879269       0.00000000
H       -1.40243869       3.05512437       0.47293754       0.00000000
Si      -1.58513104      -3.04838031       0.66557243       0.00000000
Si      -3.48553875       0.52895259      -0.28972803       0.00000000
Si       3.07579638       0.09342315      -2.28360600       0.00000000
Si      -0.75768049       2.88183135      -2.40985342       0.00000000
