10
Lattice="16.2900001489832 0.0 0.0 0.0 16.2900001489832 0.0 0.0 0.0 29.27137083596932" Properties=species:S:1:pos:R:3:initial_magmoms:R:1 pbc="T T T"
Si      -1.33367860      -1.36507318      -1.38657898       0.00000000
Si      -1.38269521       1.40799684       1.29429220       0.00000000
Si       1.29883429      -1.30745170       1.48528790       0.00000000
Si       1.33022512       1.36271064      -1.41357597       0.00000000
Si       2.69777063      -2.62949599       0.12121275       0.00000000
Si      -2.67950954      -0.00814663      -2.73302399       0.00000000
Si      -2.73097780      -2.68651099      -0.02142664       0.00000000
Si      -0.02933829       2.76104425       2.65628909       0.00000000
Si      -0.14406876       2.76726703      -2.65943576       0.00000000
Si       2.69669549      -0.07915800      -2.74292649       0.00000000
