10
Lattice="16.2900001489832 0.0 0.0 0.0 16.2900001489832 0.0 0.0 0.0 29.27137083596932" Properties=species:S:1:pos:R:3:initial_magmoms:R:1 pbc="T T T"
Si       0.53445861      -0.38149551       2.24654844       0.00000000
Si      -2.11515878       1.27676134       0.06653383       0.00000000
Si       1.82285102       1.65279971      -0.25381206       0.00000000
Si      -0.34283934      -2.45245952      -0.67420748       0.00000000
H       -0.67002400      -0.06674013      -2.63462827       0.00000000
H        1.45101547      -0.94187152      -2.19429904       0.00000000
Si      -2.76824118      -2.13861638      -0.12522292       0.00000000
Si       0.46439532       3.61520715      -0.34080657       0.00000000
Si      -2.67413384      -1.37792224       2.16242252       0.00000000
Si      -1.47403324       3.28553013       1.02101469       0.00000000
