10
Lattice="16.2900001489832 0.0 0.0 0.0 16.2900001489832 0.0 0.0 0.0 29.27137083596932" Properties=species:S:1:pos:R:3:initial_magmoms:R:1 pbc="T T T"
Si      -2.15109452      -0.55120474       0.83271196       0.00000000
Si       1.59138640      -1.73389133       0.51681532       0.00000000
Si      -0.44090514      -0.09664857      -2.39530555       0.00000000
Si       1.24831900       1.99927335       1.13877341       0.00000000
H       -2.18924570      -0.51487803       2.32502499       0.00000000
Si       1.85914514      -0.87698845      -2.84725551       0.00000000
Si       2.83297275       2.28078898      -0.97625876       0.00000000
Si       2.30605184       0.48694068       2.95394966       0.00000000
Si       1.70763185      -1.79859521       2.86385238       0.00000000
H       -1.98503426       0.83655667       3.27262707       0.00000000
