10
Lattice="16.2900001489832 0.0 0.0 0.0 16.2900001489832 0.0 0.0 0.0 29.27137083596932" Properties=species:S:1:pos:R:3:initial_magmoms:R:1 pbc="T T T"
Si      -0.25301628       0.58117834      -2.22709469       0.00000000
Si      -1.80864125      -0.89021593       1.20662152       0.00000000
Si       0.89632468       1.88758748       1.10467519       0.00000000
Si       1.77787433      -1.67531249       0.00795596       0.00000000
H       -2.00418315       1.66895939      -0.09366985       0.00000000
H       -0.57699181       2.04095783      -2.35635706       0.00000000
Si       2.08298603       0.13737357      -2.66022316       0.00000000
Si      -0.50419179      -2.16261155       2.67603556       0.00000000
Si       2.17513856       0.62423281       2.65045238       0.00000000
Si       0.81088363      -3.45688464       1.20544189       0.00000000
