10
Lattice="16.2900001489832 0.0 0.0 0.0 16.2900001489832 0.0 0.0 0.0 29.27137083596932" Properties=species:S:1:pos:R:3:initial_magmoms:R:1 pbc="T T T"
Si       0.47518908      -1.00836730       2.03389193       0.00000000
Si       1.88683162       1.00502622      -0.99543151       0.00000000
Si      -0.93951598      -1.78349438      -1.26376216       0.00000000
Si      -1.73251319       1.66860263       0.13315547       0.00000000
H       -0.53181312      -2.13503258       2.06553428       0.00000000
H       -2.29174890      -0.72180991       1.97142683       0.00000000
Si       0.56889079       2.30731562      -2.48610534       0.00000000
Si      -2.21038035      -0.49461327      -2.74249328       0.00000000
Si      -3.47582014       0.77621672      -1.22263589       0.00000000
Si      -0.82214653       3.58707432      -1.00157850       0.00000000
