10
Lattice="16.28999089631971 0.0 0.0 0.0 16.28999089631971 0.0 0.0 0.0 34.71893929493243" Properties=species:S:1:pos:R:3:initial_magmoms:R:1 pbc="T T T"
Si       0.82285677      -1.44373383      -1.70365930       0.00000000
Si      -2.08753092      -0.76333311       0.90088754       0.00000000
Si       0.05543487       2.41473905      -0.45138118       0.00000000
Si       1.32669018      -1.12976037       1.87617781       0.00000000
Si      -2.34311125       0.96716078       2.62923202       0.00000000
Si      -0.12248451      -0.34450092      -3.64413662       0.00000000
Si       1.68392988       2.44318139      -2.20704949       0.00000000
Si       3.29295834      -1.44016632      -1.55870765       0.00000000
Si      -0.09168012      -3.68924517      -1.52628014       0.00000000
Si      -1.95281262      -3.04005609       1.87558759       0.00000000
