10
Lattice="16.28999089631971 0.0 0.0 0.0 16.28999089631971 0.0 0.0 0.0 34.71893929493243" Properties=species:S:1:pos:R:3:initial_magmoms:R:1 pbc="T T T"
Si       0.69680475       1.79734901      -1.41851250       0.00000000
Si      -1.83979260      -0.75789355      -1.47690978       0.00000000
Si       1.81679112      -1.95971862      -0.13359855       0.00000000
Si       0.69196662       1.85718217       2.14247222       0.00000000
Si      -0.17273916      -1.14494169       3.26719289       0.00000000
Si       2.07050787       0.49839418      -2.95388901       0.00000000
Si      -2.78329311      -2.49539898      -0.06589658       0.00000000
Si      -0.65054115      -2.21550420      -2.97027635       0.00000000
Si       1.83528027       3.33636304      -0.05089799       0.00000000
Si       3.40068411      -0.92830098      -1.57013019       0.00000000
