10
Lattice="16.28999089631971 0.0 0.0 0.0 16.28999089631971 0.0 0.0 0.0 34.71893929493243" Properties=species:S:1:pos:R:3:initial_magmoms:R:1 pbc="T T T"
Si      -0.36338103       1.81092998       1.42021372       0.00000000
Si      -0.29550060      -2.02353144       1.22245454       0.00000000
Si       2.17495935       0.16798737      -1.00039208       0.00000000
Si      -2.11387185       0.20675920      -1.11909620       0.00000000
Si      -1.39986486       0.61296175       3.23372381       0.00000000
Si      -1.92958308      -3.14379474      -0.00451346       0.00000000
Si       2.51190171      -1.91416038      -2.12070344       0.00000000
Si      -1.80533925       0.66787045      -3.36871112       0.00000000
Si       1.98309573       1.68248333      -2.89816508       0.00000000
Si      -3.35378520       2.08812062      -0.28778545       0.00000000
