10
Lattice="16.28999089631971 0.0 0.0 0.0 16.28999089631971 0.0 0.0 0.0 34.71893929493243" Properties=species:S:1:pos:R:3:initial_magmoms:R:1 pbc="T T T"
Si       0.33694236      -2.08214775      -1.12031136       0.00000000
Si      -2.17495935      -0.16798737       1.00039208       0.00000000
Si      -0.19186362       1.51449596      -1.89777300       0.00000000
Si       1.77359004       0.37150811       1.80430956       0.00000000
Si       1.45026612       3.09718349      -1.28272665       0.00000000
Si      -0.39276819      -1.69965855      -3.35767050       0.00000000
Si      -2.53834038       1.64294261       2.42060580       0.00000000
Si      -2.47045995      -2.19151881       2.22284661       0.00000000
Si       2.62138680      -2.83399641      -1.14360778       0.00000000
Si       0.17479170       0.43707699      -4.01764318       0.00000000
