10
Lattice="16.28999089631971 0.0 0.0 0.0 16.28999089631971 0.0 0.0 0.0 34.71893929493243" Properties=species:S:1:pos:R:3:initial_magmoms:R:1 pbc="T T T"
Si      -0.55125360       0.17443332       2.23413027       0.00000000
Si      -0.22532328       2.10487977      -1.00646789       0.00000000
Si       2.30659884      -0.45841689      -0.12238433       0.00000000
Si      -1.88015922      -1.31101920      -0.57904279       0.00000000
Si      -1.11873204      -2.09551302       2.72470916       0.00000000
Si      -3.46498074       0.42042861      -1.04222842       0.00000000
Si       2.95938801       0.71897544      -2.05508460       0.00000000
Si       1.27589796       1.16895411       3.31708403       0.00000000
Si       2.43177120      -2.58245370      -1.19533903       0.00000000
Si       1.92226887       2.77371459      -1.72310192       0.00000000
