10
Lattice="16.28999089631971 0.0 0.0 0.0 16.28999089631971 0.0 0.0 0.0 34.71893929493243" Properties=species:S:1:pos:R:3:initial_magmoms:R:1 pbc="T T T"
Si      -1.21350793       2.04327425       0.28591062       0.00000000
Si       2.37142327       0.01920265       0.53984509       0.00000000
Si      -1.41908773      -0.66807733       1.87308782       0.00000000
Si      -0.11662988      -1.59402930      -1.95495513       0.00000000
Si      -3.06362839       0.80078708       1.02486894       0.00000000
Si       2.06289067      -0.44190860       2.78946002       0.00000000
Si       0.34153940      -3.51116682      -0.70253813       0.00000000
Si      -2.46655102      -1.75520256      -2.04196084       0.00000000
Si      -0.13450816       2.97230924       2.12861936       0.00000000
Si      -1.03948186       3.05778287      -1.83649404       0.00000000
