10
Lattice="16.28999089631971 0.0 0.0 0.0 16.28999089631971 0.0 0.0 0.0 34.71893929493243" Properties=species:S:1:pos:R:3:initial_magmoms:R:1 pbc="T T T"
Si      -1.82120571      -0.73422288      -1.32213267       0.00000000
Si      -0.56664765       0.08400753       2.30894963       0.00000000
Si       1.98954657      -1.27830888      -0.27563381       0.00000000
Si       0.26290431       2.30337342      -0.60973435       0.00000000
Si      -3.36422546       0.69631605      -0.16179035       0.00000000
Si      -2.82556566      -0.27774450       1.95040694       0.00000000
Si       1.36884870       3.01768992       1.38164096       0.00000000
Si       0.66896514      -1.71849726       3.19713003       0.00000000
Si      -0.11976408       2.27396997       3.00673126       0.00000000
Si      -0.92418057      -1.03231359      -3.55199251       0.00000000
