10
Lattice="16.28999089631971 0.0 0.0 0.0 16.28999089631971 0.0 0.0 0.0 34.71893929493243" Properties=species:S:1:pos:R:3:initial_magmoms:R:1 pbc="T T T"
Si       1.84893129       0.17321157      -1.54620883       0.00000000
Si       0.98003898       1.22258079       1.89041054       0.00000000
Si      -1.19299815       1.96555140      -1.06649697       0.00000000
Si      -0.65485800      -2.37436524      -1.00990507       0.00000000
Si      -1.44847422      -1.35075051       1.95604326       0.00000000
Si       2.12960799       3.01337307       0.71009857       0.00000000
Si      -0.87167790      -1.96911891      -3.26785255       0.00000000
Si       1.40123322      -1.16655948      -3.50633708       0.00000000
Si       0.33070329       3.91235301      -0.82047843       0.00000000
Si       2.91141396       2.40147180      -1.39049430       0.00000000
