10
Lattice="16.28999089631971 0.0 0.0 0.0 16.28999089631971 0.0 0.0 0.0 34.71893929493243" Properties=species:S:1:pos:R:3:initial_magmoms:R:1 pbc="T T T"
Si       1.19724495       0.37874250       1.99949955       0.00000000
Si       0.07411624      -2.35761002      -0.12255792       0.00000000
Si       1.45726919       0.89378343      -1.66203127       0.00000000
Si      -2.23750548       0.73402740       0.59633283       0.00000000
Si      -2.21092020      -2.85717545      -0.05086327       0.00000000
Si      -0.78479586      -1.21374672      -3.40971421       0.00000000
Si      -0.49467096       0.12416238       3.67708492       0.00000000
Si       2.86285184       2.34804060      -0.41721773       0.00000000
Si       1.23620086      -2.82555656      -2.13365361       0.00000000
Si       1.96582670       2.64613131       1.81264211       0.00000000
