10
Lattice="16.28999089631971 0.0 0.0 0.0 16.28999089631971 0.0 0.0 0.0 34.71893929493243" Properties=species:S:1:pos:R:3:initial_magmoms:R:1 pbc="T T T"
Si      -1.34187246      -1.36067112       1.37434304       0.00000000
Si       1.38119652       1.34944731       1.36864913       0.00000000
Si       1.18728036      -1.43021313      -1.47103186       0.00000000
Si      -1.46665386       1.34762283      -1.46350827       0.00000000
Si       2.33684937       0.36057915      -2.65134383       0.00000000
Si      -2.68462458      -2.71420722       0.00143736       0.00000000
Si      -2.70226665       2.70163134       0.00985324       0.00000000
Si      -2.69307909      -0.00842193       2.73195848       0.00000000
Si       2.71111212      -2.71430496      -0.01053720       0.00000000
Si       0.01972719       2.70826137       2.73105579       0.00000000
