10
Lattice="16.28999089631971 0.0 0.0 0.0 16.28999089631971 0.0 0.0 0.0 34.71893929493243" Properties=species:S:1:pos:R:3:initial_magmoms:R:1 pbc="T T T"
Si      -0.01940139      -1.86328278      -1.50103946       0.00000000
Si      -2.18647638      -0.03469770       1.00768306       0.00000000
Si       1.44552573      -0.49451553       1.86506774       0.00000000
Si       0.74380140       2.01267837      -1.11340229       0.00000000
Si       0.39340350      -3.46178790       0.18793372       0.00000000
Si       2.82471858       1.39476609       1.93585970       0.00000000
Si      -3.50371836       1.32558246      -0.41482212       0.00000000
Si       2.18914794      -2.72925918       1.45677279       0.00000000
Si       2.86006788       2.50755228      -0.10808012       0.00000000
Si      -1.94126301       0.62928270       3.27049119       0.00000000
