10
Lattice="16.28999089631971 0.0 0.0 0.0 16.28999089631971 0.0 0.0 0.0 34.71893929493243" Properties=species:S:1:pos:R:3:initial_magmoms:R:1 pbc="T T T"
Si      -0.93545325       1.74677670       1.33976990       0.00000000
Si       0.89595000       1.27852065      -1.91940291       0.00000000
Si      -1.52370144      -1.94680161      -0.24601854       0.00000000
Si       1.79890470      -0.89897994       1.53057700       0.00000000
Si       2.58071067      -1.51088121      -0.57001586       0.00000000
Si      -2.00459853       0.08806374       2.71841257       0.00000000
Si       3.17786949       0.39381075      -1.96929406       0.00000000
Si      -1.99111041      -1.88900469      -2.63777289       0.00000000
Si      -3.46934646      -1.31978322       1.07489896       0.00000000
Si       0.64933569      -2.68977222       2.71088897       0.00000000
