10
Lattice="16.28999089631971 0.0 0.0 0.0 16.28999089631971 0.0 0.0 0.0 34.71893929493243" Properties=species:S:1:pos:R:3:initial_magmoms:R:1 pbc="T T T"
Si      -1.35733167      -1.35573525       1.35674747       0.00000000
Si      -1.35755973       1.35728280      -1.35699050       0.00000000
Si       1.35850455       1.35814617       1.35695578       0.00000000
Si       1.35830907      -1.35811359      -1.35754600       0.00000000
Si       0.00047241       2.71354517      -2.71401572       0.00000000
Si       2.71420722       0.00021177      -2.71422403       0.00000000
Si      -0.00099369       2.71210581       2.71634189       0.00000000
Si      -2.71459818       2.71412191       0.00010416       0.00000000
Si       2.71425609       0.00174303       2.71474482       0.00000000
Si       2.71498914       2.71433108      -0.00017359       0.00000000
