10
Lattice="16.28999089631971 0.0 0.0 0.0 16.28999089631971 0.0 0.0 0.0 34.71893929493243" Properties=species:S:1:pos:R:3:initial_magmoms:R:1 pbc="T T T"
Si      -0.94537386       0.80239653       2.02099059       0.00000000
Si      -1.37775933      -1.85354136      -0.58772253       0.00000000
Si      -0.50432211       0.87444720      -2.16615055       0.00000000
Si       2.30666400       0.09542682       0.65025138       0.00000000
Si      -3.40332309      -1.32335073       0.46422720       0.00000000
Si      -2.59064431       2.31497190       1.26609627       0.00000000
Si      -3.61911509       0.88215237      -0.34621746       0.00000000
Si       2.29170978       0.22359654       3.04634559       0.00000000
Si       0.68870862       1.92265983       3.24795859       0.00000000
Si       0.10593387      -1.12847346      -3.70597109       0.00000000
