10
Lattice="16.28999089631971 0.0 0.0 0.0 16.28999089631971 0.0 0.0 0.0 34.71893929493243" Properties=species:S:1:pos:R:3:initial_magmoms:R:1 pbc="T T T"
Si      -0.72971055       0.38248920      -2.23735914       0.00000000
Si      -0.33694236       2.08214775       1.12031136       0.00000000
Si      -1.18944693      -1.93660407       0.74545076       0.00000000
Si       2.28444444      -0.75184866      -0.02329642       0.00000000
Si       0.10560807      -3.65286960      -0.17748332       0.00000000
Si      -0.52880598       3.59664371      -0.77746164       0.00000000
Si       2.13175827      -2.97701379       0.73111183       0.00000000
Si      -2.51190171       1.91416038       2.12070344       0.00000000
Si      -1.20440115      -1.80843435       3.14154498       0.00000000
Si      -0.16215066       2.51922474      -2.89733182       0.00000000
