10
Lattice="16.28999089631971 0.0 0.0 0.0 16.28999089631971 0.0 0.0 0.0 34.71893929493243" Properties=species:S:1:pos:R:3:initial_magmoms:R:1 pbc="T T T"
Si       1.45766178       0.41557419      -1.81639176       0.00000000
Si      -0.29853054      -2.23112727      -0.77944062       0.00000000
Si      -2.00099844       1.49617134      -0.20636949       0.00000000
Si       0.61809147       0.89383230       2.28436861       0.00000000
Si      -0.62063271       2.86181091       1.10409761       0.00000000
Si       1.80957465       2.55723678      -1.06521237       0.00000000
Si      -3.43272654       0.12176775       1.27453297       0.00000000
Si      -2.12993379      -1.76287122       2.47973219       0.00000000
Si       1.98338895      -3.11583717      -0.82933177       0.00000000
Si      -0.03473028       1.18576539      -3.64125495       0.00000000
