10
Lattice="16.28999089631971 0.0 0.0 0.0 16.28999089631971 0.0 0.0 0.0 34.71893929493243" Properties=species:S:1:pos:R:3:initial_magmoms:R:1 pbc="T T T"
Si       1.24362421      -1.74729798       1.10260469       0.00000000
Si      -1.30901946      -1.25735017      -1.59582222       0.00000000
Si       1.33084413       0.66652164      -1.94033844       0.00000000
Si      -1.18865265       1.98980721       1.02757702       0.00000000
Si      -0.43310616       0.02078604      -3.40631176       0.00000000
Si       1.02303155       2.99923335      -1.99821495       0.00000000
Si       3.11843054      -0.52393853       2.08067248       0.00000000
Si      -0.61713429       3.74437053      -0.46912257       0.00000000
Si       1.49920454      -3.47779187      -0.62573979       0.00000000
Si      -3.61540653      -1.01915453      -1.09548730       0.00000000
