10
Lattice="16.28999089631971 0.0 0.0 0.0 16.28999089631971 0.0 0.0 0.0 34.71893929493243" Properties=species:S:1:pos:R:3:initial_magmoms:R:1 pbc="T T T"
Si      -0.77075646      -0.75540707       2.11066029       0.00000000
Si      -1.24362421       1.74729798      -1.10260469       0.00000000
Si       1.87480633       1.22335945       0.97806779       0.00000000
Si       0.25558033      -1.73049389      -1.72834448       0.00000000
Si       0.82587694      -2.53862450       2.36352128       0.00000000
Si      -0.06440089       1.08449372       3.44904875       0.00000000
Si       2.34311125      -0.96716078      -2.62923202       0.00000000
Si      -2.55264367       0.48994781      -2.69842691       0.00000000
Si       0.83216488       2.94596505       2.28351873       0.00000000
Si      -1.81123690      -1.76457257      -2.87834055       0.00000000
