10
Lattice="16.28999089631971 0.0 0.0 0.0 16.28999089631971 0.0 0.0 0.0 34.71893929493243" Properties=species:S:1:pos:R:3:initial_magmoms:R:1 pbc="T T T"
Si       1.07681787       1.66982274      -1.30109298       0.00000000
Si      -0.82745055       1.59431859       1.66185768       0.00000000
Si      -1.76870304      -1.20096396      -1.20783785       0.00000000
Si       1.82377953      -1.67972706       0.06950736       0.00000000
Si      -0.35168481      -0.38825586       2.96687390       0.00000000
Si       2.37042306       0.26508717      -2.63242617       0.00000000
Si      -0.35860806      -2.46500280      -2.61544860       0.00000000
Si       2.64707613       2.79935505       0.07652058       0.00000000
Si       3.70685466      -0.91496043      -1.11555486       0.00000000
Si      -0.36393489       2.99828853      -2.59465194       0.00000000
