10
Lattice="16.28999089631971 0.0 0.0 0.0 16.28999089631971 0.0 0.0 0.0 34.71893929493243" Properties=species:S:1:pos:R:3:initial_magmoms:R:1 pbc="T T T"
Si      -0.10497276      -1.15621533       2.00807513       0.00000000
Si      -0.52373979      -1.69148844      -1.57821971       0.00000000
Si       2.34378891       0.36199638      -0.16706763       0.00000000
Si      -1.73840364       1.61538156       0.23237399       0.00000000
Si      -3.17490471       1.07487936      -1.62220863       0.00000000
Si      -2.76864840      -1.20650256      -2.18319756       0.00000000
Si       0.93214638      -3.21095448       1.67609245       0.00000000
Si       0.08120565      -3.78670824      -0.55119819       0.00000000
Si      -0.92651004       3.67108182      -0.56626622       0.00000000
Si       0.83088774       0.05361039       3.81356514       0.00000000
