10
Lattice="16.28999089631971 0.0 0.0 0.0 16.28999089631971 0.0 0.0 0.0 34.71893929493243" Properties=species:S:1:pos:R:3:initial_magmoms:R:1 pbc="T T T"
Si       1.34275212       1.35353610       1.37290567       0.00000000
Si      -1.36515250      -1.36622601       1.36735064       0.00000000
Si       1.44339174      -1.28933721      -1.40683651       0.00000000
Si      -1.45376358       1.20759399      -1.49798419       0.00000000
Si      -0.42158520      -2.26751913      -2.49311704       0.00000000
Si      -2.39590388      -0.71977365      -2.78418416       0.00000000
Si       2.68462458       2.71420722      -0.00143736       0.00000000
Si      -2.73156326       2.69765658      -0.02328601       0.00000000
Si       2.70420516      -0.00777033       2.72816022       0.00000000
Si       2.71107954      -2.72305269       0.00693685       0.00000000
