10
Lattice="16.28999089631971 0.0 0.0 0.0 16.28999089631971 0.0 0.0 0.0 34.71893929493243" Properties=species:S:1:pos:R:3:initial_magmoms:R:1 pbc="T T T"
Si       1.39600413      -0.24619077      -1.84333367       0.00000000
Si       0.69686991       1.08758556       1.98602859       0.00000000
Si      -0.79281801      -2.03941026       0.94390433       0.00000000
Si      -1.97737794       1.08554931      -1.04931109       0.00000000
Si       3.15781650       1.08194922      -0.69031706       0.00000000
Si      -2.75794587      -1.11161331       1.94384506       0.00000000
Si      -3.36289131       0.98360649       0.91682354       0.00000000
Si       0.72723447      -2.46456297       2.64176557       0.00000000
Si       2.97455400       1.53793890       1.71136691       0.00000000
Si       0.41704029      -0.44486361       3.73211447       0.00000000
