10
Lattice="16.28999089631971 0.0 0.0 0.0 16.28999089631971 0.0 0.0 0.0 34.71893929493243" Properties=species:S:1:pos:R:3:initial_magmoms:R:1 pbc="T T T"
Si       0.10497276       1.15621533      -2.00807513       0.00000000
Si       1.03711914      -2.05473915      -0.33198268       0.00000000
Si      -2.14759215      -0.66883482       0.71663403       0.00000000
Si       0.93586050       1.20982572       1.80549001       0.00000000
Si      -2.48194440       1.19726613       2.04602296       0.00000000
Si       2.44876167       1.51821171      -2.17514276       0.00000000
Si       0.38432997      -3.23213148       1.60071759       0.00000000
Si      -0.41876703      -0.53527311      -3.58629484       0.00000000
Si      -1.63343088       2.77159689      -1.77570114       0.00000000
Si       0.18617841      -2.63049291      -2.55927332       0.00000000
