10
Lattice="16.28999089631971 0.0 0.0 0.0 16.28999089631971 0.0 0.0 0.0 34.71893929493243" Properties=species:S:1:pos:R:3:initial_magmoms:R:1 pbc="T T T"
Si      -1.95970329      -0.67906494      -1.14030948       0.00000000
Si      -0.46612206       1.81586259       1.47072981       0.00000000
Si       1.75607829       0.20934279      -1.61793819       0.00000000
Si       0.98041365      -1.75659957       1.35803207       0.00000000
Si      -1.06328088      -0.08882937       2.87000800       0.00000000
Si       1.98332379      -0.14437827       2.83844847       0.00000000
Si      -1.73846880       0.50984442      -3.12248427       0.00000000
Si      -1.69863975      -3.02471091      -1.39716034       0.00000000
Si       3.82774275       0.32132025      -0.42992487       0.00000000
Si       1.41931512      -1.48320450      -3.32499996       0.00000000
