10
Lattice="16.28999089631971 0.0 0.0 0.0 16.28999089631971 0.0 0.0 0.0 34.71893929493243" Properties=species:S:1:pos:R:3:initial_magmoms:R:1 pbc="T T T"
Si      -0.78180597       0.61190127       2.10059287       0.00000000
Si       0.59715882       1.90469196      -1.39927819       0.00000000
Si      -1.06248267      -2.22826023      -0.15571453       0.00000000
Si       2.04369453      -1.66777020      -1.51197593       0.00000000
Si      -2.58071067       1.51088121       0.57001586       0.00000000
Si       3.04660467      -0.05554890      -0.03155953       0.00000000
Si       1.06328088       0.08882937      -2.87000800       0.00000000
Si       1.11858543      -3.01029426       0.15859620       0.00000000
Si      -1.68476067       2.78940186      -1.34938705       0.00000000
Si       0.99818604       1.71118305       3.33797933       0.00000000
