10
Lattice="16.28999089631971 0.0 0.0 0.0 16.28999089631971 0.0 0.0 0.0 34.71893929493243" Properties=species:S:1:pos:R:3:initial_magmoms:R:1 pbc="T T T"
Si      -1.39163841       1.27404090       1.40799612       0.00000000
Si       1.73828961       0.91401561      -1.39343989       0.00000000
Si       1.31996241      -1.47323502       1.41176313       0.00000000
Si      -1.77999201      -1.09928178      -1.23738647       0.00000000
Si       3.36849507      -1.07175168      -1.38371858       0.00000000
Si      -0.02507031       2.60666064       2.78621727       0.00000000
Si       2.80437237       2.59180416      -0.07055240       0.00000000
Si       2.69175960      -0.10783980       2.78725884       0.00000000
Si      -0.99818604      -1.71118305      -3.33797933       0.00000000
Si      -2.85291657       2.64968253      -0.10049403       0.00000000
