10
Lattice="16.28999089631971 0.0 0.0 0.0 16.28999089631971 0.0 0.0 0.0 34.71893929493243" Properties=species:S:1:pos:R:3:initial_magmoms:R:1 pbc="T T T"
Si       1.29360519      -1.40473557      -1.33133319       0.00000000
Si      -1.44075276       1.32846579      -1.29355896       0.00000000
Si       1.57025826       1.12953231       1.37761356       0.00000000
Si      -1.07681787      -1.66982274       1.30109298       0.00000000
Si      -1.90426842      -0.07550415       2.96295065       0.00000000
Si       2.63003679      -2.58478317       0.18553812       0.00000000
Si       0.74696166      -3.34954980       1.37060033       0.00000000
Si       2.64135834      -0.05071077      -2.68137990       0.00000000
Si      -0.07537383       2.66395257      -2.67499161       0.00000000
Si       3.40979022      -0.53796096       1.55787440       0.00000000
