10
Lattice="16.28999089631971 0.0 0.0 0.0 16.28999089631971 0.0 0.0 0.0 34.71893929493243" Properties=species:S:1:pos:R:3:initial_magmoms:R:1 pbc="T T T"
Si      -1.05595038      -0.33770799      -2.06765287       0.00000000
Si      -0.80734869       2.06601183       0.84828832       0.00000000
Si      -0.26759583      -1.93969917       1.35688634       0.00000000
Si       2.27548494      -0.21846519      -0.69903151       0.00000000
Si      -2.14008246      -2.35916667      -1.65703174       0.00000000
Si       1.80406863      -1.82772171       2.54489967       0.00000000
Si      -0.60435900      -3.63224646      -0.35017542       0.00000000
Si       2.21210055      -1.90729836      -2.33491941       0.00000000
Si       0.41270715       3.77343189      -0.24150508       0.00000000
Si      -1.87414821       1.73920185      -2.81848507       0.00000000
