10
Lattice="16.28999089631971 0.0 0.0 0.0 16.28999089631971 0.0 0.0 0.0 34.71893929493243" Properties=species:S:1:pos:R:3:initial_magmoms:R:1 pbc="T T T"
Si       0.46612206      -1.81586259      -1.47072981       0.00000000
Si      -0.59715882      -1.90469196       1.39927819       0.00000000
Si      -2.28191949       0.88470990       0.04989114       0.00000000
Si       2.13205149       1.08942633       0.73236171       0.00000000
Si       2.44944585      -1.96024086       1.36771866       0.00000000
Si       1.73841993       2.69382843      -1.24995195       0.00000000
Si      -0.52572717       3.53141136      -0.98706000       0.00000000
Si      -3.17786949      -0.39381075       1.96929406       0.00000000
Si      -1.98338895       3.11583717       0.82933177       0.00000000
Si       1.44653571      -3.57246216      -0.11269774       0.00000000
