10
Lattice="16.28999089631971 0.0 0.0 0.0 16.28999089631971 0.0 0.0 0.0 34.71893929493243" Properties=species:S:1:pos:R:3:initial_magmoms:R:1 pbc="T T T"
Si      -2.29643388      -0.64400886       0.14172279       0.00000000
Si       1.19200446       0.40456215       2.06734040       0.00000000
Si      -0.43047954       2.50671402       0.10460822       0.00000000
Si       0.00548973      -2.07744741      -1.73181638       0.00000000
Si       1.67084901       0.99173520      -2.14663850       0.00000000
Si      -0.04440654       2.73010530      -2.16760875       0.00000000
Si       1.27114128       2.79581265       1.67657852       0.00000000
Si       0.95786829      -0.84489714      -3.41356802       0.00000000
Si      -3.08860029       0.91105083       1.77809675       0.00000000
Si       1.64105460      -3.40553853      -0.61445613       0.00000000
