10
Lattice="16.28999089631971 0.0 0.0 0.0 16.28999089631971 0.0 0.0 0.0 34.71893929493243" Properties=species:S:1:pos:R:3:initial_magmoms:R:1 pbc="T T T"
Si      -1.26599364      -1.84748148      -0.47564973       0.00000000
Si       0.35385138       1.32341589      -1.89930064       0.00000000
Si       1.02086172       0.18674856       2.10133026       0.00000000
Si      -2.48306841       0.01093059       0.63032270       0.00000000
Si       0.31455990       2.46536118       2.18784990       0.00000000
Si      -1.99492227       2.30760882       1.31543191       0.00000000
Si       2.57808798       0.60080778      -2.07185386       0.00000000
Si      -1.26317547      -1.65252276      -2.78543262       0.00000000
Si      -0.19919412      -1.52067150       3.19112365       0.00000000
Si       3.31846848      -0.13014081       1.54645186       0.00000000
