10
Lattice="16.28999089631971 0.0 0.0 0.0 16.28999089631971 0.0 0.0 0.0 34.71893929493243" Properties=species:S:1:pos:R:3:initial_magmoms:R:1 pbc="T T T"
Si       1.90353537       1.07129556       0.87488304       0.00000000
Si      -0.05597244      -0.29463723      -2.34731408       0.00000000
Si      -2.26414710       0.83758293       0.26289196       0.00000000
Si       0.39363156      -1.60440210       1.98231367       0.00000000
Si      -1.73841993      -2.69382843       1.24995195       0.00000000
Si      -1.91223423       2.97924552       1.01407135       0.00000000
Si      -2.37519603       0.12417867      -2.86417522       0.00000000
Si       1.16408340       1.41278283      -3.43710747       0.00000000
Si       0.75137625      -2.36064906      -3.19560240       0.00000000
Si       2.07912528      -3.22151040       1.40181268       0.00000000
