10
Lattice="16.28999089631971 0.0 0.0 0.0 16.28999089631971 0.0 0.0 0.0 34.71893929493243" Properties=species:S:1:pos:R:3:initial_magmoms:R:1 pbc="T T T"
Si      -1.23706260       1.42273602       1.41660295       0.00000000
Si       1.80143358       0.70064919      -1.37875030       0.00000000
Si       1.45461019      -1.32299235       1.40598242       0.00000000
Si      -2.00595060      -0.71887770      -1.29993826       0.00000000
Si       0.51131052      -0.05595615      -3.44622957       0.00000000
Si      -2.66383854       2.69961138       0.00650633       0.00000000
Si       2.74357387       2.62801683      -0.09255033       0.00000000
Si      -2.60038899       0.05346378       2.77733269       0.00000000
Si      -2.72073951      -2.68829309      -0.04129126       0.00000000
Si       0.11635947      -2.65647220       2.77851313       0.00000000
