10
Lattice="16.28999089631971 0.0 0.0 0.0 16.28999089631971 0.0 0.0 0.0 34.71893929493243" Properties=species:S:1:pos:R:3:initial_magmoms:R:1 pbc="T T T"
Si      -1.35716877      -1.32853258       1.35473377       0.00000000
Si      -1.35459495       1.35661491      -1.35785847       0.00000000
Si       1.36065483      -1.35571081      -1.35813623       0.00000000
Si       1.34890974       1.37339361       1.38292556       0.00000000
Si      -0.06828768      -2.63101403       2.77046875       0.00000000
Si      -2.71308321       0.00000000      -2.71533504       0.00000000
Si      -2.71199178       2.71678104       0.00302055       0.00000000
Si      -2.71718829      -2.71171255       0.00201370       0.00000000
Si       0.00210141      -2.71476079      -2.71543920       0.00000000
Si       0.00175932       2.71534752      -2.71491841       0.00000000
