10
Lattice="16.28999089631971 0.0 0.0 0.0 16.28999089631971 0.0 0.0 0.0 34.71893929493243" Properties=species:S:1:pos:R:3:initial_magmoms:R:1 pbc="T T T"
Si      -0.57005226       1.53228138       1.63668643       0.00000000
Si      -1.33698546      -1.34461390      -1.35712938       0.00000000
Si       1.43734815       1.31614566      -1.32595175       0.00000000
Si      -0.09514989      -1.86184504       2.14382626       0.00000000
Si      -1.31468445      -0.14716386       3.13998262       0.00000000
Si       2.25477125      -1.70067178       2.23083197       0.00000000
Si      -2.62586655      -0.04213246      -2.77286436       0.00000000
Si       0.08021196       2.65979373      -2.74467256       0.00000000
Si       2.92288931       2.53198239       0.29375711       0.00000000
Si      -3.20018679      -2.20629709      -0.18845451       0.00000000
