10
Lattice="16.28999089631971 0.0 0.0 0.0 16.28999089631971 0.0 0.0 0.0 34.71893929493243" Properties=species:S:1:pos:R:3:initial_magmoms:R:1 pbc="T T T"
Si      -0.62245719      -0.84130845      -2.07067342       0.00000000
Si       1.85012046       1.24248717      -0.73895832       0.00000000
Si       1.64454066      -1.46886441       0.84821888       0.00000000
Si      -1.93919418       0.46276632       1.29848906       0.00000000
Si       3.06362839      -0.80078708      -1.02486894       0.00000000
Si      -2.90766726      -1.09636424      -1.57589354       0.00000000
Si       0.57684519      -3.49864307       0.30122169       0.00000000
Si      -3.45924666       0.88791903      -0.39937218       0.00000000
Si       0.12217500       0.83813679      -3.57396961       0.00000000
Si       2.92912023       2.17152216       1.10375042       0.00000000
