10
Lattice="16.28999089631971 0.0 0.0 0.0 16.28999089631971 0.0 0.0 0.0 34.71893929493243" Properties=species:S:1:pos:R:3:initial_magmoms:R:1 pbc="T T T"
Si      -2.30638707       0.23819564       0.50033491       0.00000000
Si       0.74140677      -2.25452038      -0.17991364       0.00000000
Si       0.87591330       1.27813621      -1.81048954       0.00000000
Si       1.30901946       1.25735017       1.59582222       0.00000000
Si       2.63986359       1.92387181      -0.34451623       0.00000000
Si      -2.38508406      -1.43190796       2.17993398       0.00000000
Si       2.80822400      -2.22044170       0.97008242       0.00000000
Si       2.55264367      -0.48994781       2.69842691       0.00000000
Si      -0.99390177       2.58902509      -2.62947506       0.00000000
Si      -2.50958853       2.41296277       1.84545153       0.00000000
