10
Lattice="16.28999089631971 0.0 0.0 0.0 16.28999089631971 0.0 0.0 0.0 34.71893929493243" Properties=species:S:1:pos:R:3:initial_magmoms:R:1 pbc="T T T"
Si       0.47641734       2.20244058      -0.66299324       0.00000000
Si      -0.18326250       0.45598968       2.40168397       0.00000000
Si       1.53275868      -1.75228272      -0.82776941       0.00000000
Si      -1.76181237      -1.32813999      -1.15301662       0.00000000
Si       1.35873261      -2.76679134       1.29463525       0.00000000
Si      -3.15781650      -1.08194922       0.69031706       0.00000000
Si      -0.29690154       1.52371773      -3.06908651       0.00000000
Si      -0.36921285      -3.17114172      -1.54037604       0.00000000
Si      -2.46094659       0.00563634       2.67634565       0.00000000
Si       2.84146048       2.43121734      -0.26473206       0.00000000
