10
Lattice="16.28999089631971 0.0 0.0 0.0 16.28999089631971 0.0 0.0 0.0 34.71893929493243" Properties=species:S:1:pos:R:3:initial_magmoms:R:1 pbc="T T T"
Si       0.58780836       1.97654715      -1.12833144       0.00000000
Si       0.51968358      -1.62088758      -1.62911770       0.00000000
Si       1.44549315      -0.66217221       1.77160431       0.00000000
Si      -2.22865119       0.25159905       0.85641255       0.00000000
Si       0.97516827      -2.95142220       1.70025685       0.00000000
Si       2.68600923       1.39683492      -2.08789402       0.00000000
Si      -1.33907058      -1.64889009      -3.02693770       0.00000000
Si      -1.89188802       1.94414634       2.56347432       0.00000000
Si       0.65119275       3.66538032       0.50755646       0.00000000
Si       1.10214882      -3.65244606      -0.56150972       0.00000000
