10
Lattice="16.28999089631971 0.0 0.0 0.0 16.28999089631971 0.0 0.0 0.0 34.71893929493243" Properties=species:S:1:pos:R:3:initial_magmoms:R:1 pbc="T T T"
Si       2.23220241      -0.36730692       0.58150784       0.00000000
Si      -0.79195953       2.21153040       0.14481278       0.00000000
Si      -1.40405953      -1.42710174       1.23821694       0.00000000
Si      -0.04779486      -0.70670907      -2.34241871       0.00000000
Si      -2.48305931      -2.35613673      -0.60449179       0.00000000
Si       1.18571652       3.26914236       0.77471884       0.00000000
Si       2.13851862       0.27466569       2.87792392       0.00000000
Si       2.63202417      -2.53843812      -0.34902969       0.00000000
Si      -1.00033143       2.84187195      -2.16385910       0.00000000
Si      -2.30903324      -1.34162811      -2.72689645       0.00000000
