10
Lattice="16.28999089631971 0.0 0.0 0.0 16.28999089631971 0.0 0.0 0.0 34.71893929493243" Properties=species:S:1:pos:R:3:initial_magmoms:R:1 pbc="T T T"
Si       1.95156548       0.73303371       1.13779270       0.00000000
Si      -1.60984296       1.75115871      -0.29794183       0.00000000
Si      -0.83929338      -2.04522579       0.94205068       0.00000000
Si       0.33715413       0.11342727      -2.43277588       0.00000000
Si      -0.58384989      -2.06410590      -2.41739538       0.00000000
Si      -2.06205336      -0.64803249       2.42596675       0.00000000
Si       0.63494724       2.09733750       2.44740571       0.00000000
Si      -3.30377490       0.70139853       0.92738540       0.00000000
Si      -0.62424909       3.46561605       0.94229719       0.00000000
Si       2.95250453       2.47340844       0.00021804       0.00000000
