10
Lattice="16.28999089631971 0.0 0.0 0.0 16.28999089631971 0.0 0.0 0.0 34.71893929493243" Properties=species:S:1:pos:R:3:initial_magmoms:R:1 pbc="T T T"
Si      -0.92100402      -2.17753317       0.01538050       0.00000000
Si      -1.03575078       1.14675084      -1.84548625       0.00000000
Si       2.17977209       0.89138880      -0.68417180       0.00000000
Si      -0.33715413      -0.11342727       2.43277588       0.00000000
Si      -1.94699709       1.63773144       2.13483405       0.00000000
Si       2.20753025      -0.46116990      -2.64301545       0.00000000
Si       0.04178385      -0.03497463      -3.63472779       0.00000000
Si       0.96870996      -3.71149731      -0.40329542       0.00000000
Si       1.61441135       0.61960644       3.57056858       0.00000000
Si      -3.02878341      -2.33800596      -1.15468313       0.00000000
