10
Lattice="16.28999089631971 0.0 0.0 0.0 16.28999089631971 0.0 0.0 0.0 34.71893929493243" Properties=species:S:1:pos:R:3:initial_magmoms:R:1 pbc="T T T"
Si      -1.36101321      -1.36014984       1.38425530       0.00000000
Si       1.35576783       1.35794484       1.39210178       0.00000000
Si       1.43211906      -1.32506118      -1.45201282       0.00000000
Si      -1.48133115       1.32612396      -1.42770260       0.00000000
Si       2.69131539      -2.69333973       0.05309570       0.00000000
Si       2.69401855       2.69142470       0.01957108       0.00000000
Si      -2.71634121      -2.72316672      -0.00640218       0.00000000
Si      -2.72767905       2.71250396       0.02802167       0.00000000
Si      -0.00333945       2.71149398       2.74836319       0.00000000
Si       2.71183909      -0.00380317       2.75027273       0.00000000
