10
Lattice="16.28999089631971 0.0 0.0 0.0 16.28999089631971 0.0 0.0 0.0 34.71893929493243" Properties=species:S:1:pos:R:3:initial_magmoms:R:1 pbc="T T T"
Si      -1.14152175      -0.58865544       1.90645274       0.00000000
Si       2.06022141      -1.01485071       0.21074408       0.00000000
Si       1.06769547       2.02977865       0.54699719       0.00000000
Si      -1.27325898      -0.62863110      -1.91054958       0.00000000
Si       0.02023218       0.94265343      -3.36805146       0.00000000
Si      -0.57684519       3.49864307      -0.30122169       0.00000000
Si       2.82832260      -0.81331083      -2.02862876       0.00000000
Si       3.08869218       0.41796882       1.82305780       0.00000000
Si      -0.99934263      -2.93459463       2.04779362       0.00000000
Si      -1.19930238       2.65733461      -2.37189510       0.00000000
