10
Lattice="16.28999089631971 0.0 0.0 0.0 16.28999089631971 0.0 0.0 0.0 34.71893929493243" Properties=species:S:1:pos:R:3:initial_magmoms:R:1 pbc="T T T"
Si      -2.31696810      -0.35236899      -0.04353757       0.00000000
Si       0.53865980      -0.97406055       2.11219729       0.00000000
Si       1.54301975      -1.43053893      -1.16034232       0.00000000
Si       0.22411293       2.32867179       0.55071212       0.00000000
Si       3.36422546      -0.69631605       0.16179035       0.00000000
Si      -2.96226387       0.11653866       2.18021173       0.00000000
Si       1.80097190       3.04290684      -1.05323433       0.00000000
Si       2.79757781      -0.61230852       2.47073998       0.00000000
Si      -1.10150604      -0.22892337       3.64128967       0.00000000
Si      -2.78729298      -2.64161898      -0.11488503       0.00000000
