10
Lattice="10.86 0.0 0.0 0.0 10.86 0.0 0.0 0.0 10.86" Properties=species:S:1:pos:R:3:initial_magmoms:R:1 pbc="T T T"
Si       1.35084282      -1.13359938       1.34235030       0.00000000
Si      -1.27892790      -1.38858132      -1.26543978       0.00000000
Si      -1.06913442       1.52439648       1.45308972       0.00000000
Si       0.05986032      -2.62253796       2.64129318       0.00000000
Si      -2.65513968      -2.62253796      -0.07370682       0.00000000
Si      -2.65513968       0.09246204       2.64129318       0.00000000
Si       2.77486032      -2.62253796      -0.07370682       0.00000000
Si       0.05986032      -2.62253796      -2.78870682       0.00000000
Si       2.77486032       0.09246204       2.64129318       0.00000000
Si      -2.65513968       0.09246204      -2.78870682       0.00000000
