10
Lattice="10.86 0.0 0.0 0.0 10.86 0.0 0.0 0.0 10.86" Properties=species:S:1:pos:R:3:initial_magmoms:R:1 pbc="T T T"
Si       1.19794488       1.13762844       1.51104954       0.00000000
Si      -1.51705512       1.13762844      -1.20395046       0.00000000
Si       1.19794488      -1.57737156      -1.20395046       0.00000000
Si       2.55544488       2.49512844       0.15354954       0.00000000
Si      -0.15955512       2.49512844      -2.56145046       0.00000000
Si       2.55544488      -0.21987156      -2.56145046       0.00000000
Si      -2.85300888      -0.21812310      -2.48774364       0.00000000
Si      -0.15955512       2.49512844       2.86854954       0.00000000
Si      -2.87455512       2.49512844       0.15354954       0.00000000
Si      -0.29644542      -2.71732404      -2.66257878       0.00000000
