10
Lattice="10.86 0.0 0.0 0.0 10.86 0.0 0.0 0.0 10.86" Properties=species:S:1:pos:R:3:initial_magmoms:R:1 pbc="T T T"
Si       1.21159590      -1.36845774      -1.34307792       0.00000000
Si      -1.50340410       1.34654226      -1.34307792       0.00000000
Si      -1.50340410      -1.36845774       1.37192208       0.00000000
Si       2.35183074      -0.07439100       2.74348578       0.00000000
Si       2.56909590      -0.01095774      -2.70057792       0.00000000
Si       2.56909590      -2.72595774       0.01442208       0.00000000
Si      -2.86901652       2.46478560      -0.00463722       0.00000000
Si       2.43220560       2.92158978      -0.08670624       0.00000000
Si      -0.14590410       2.70404226      -2.70057792       0.00000000
Si      -0.14590410      -2.72595774      -2.70057792       0.00000000
