10
Lattice="16.28999089631971 0.0 0.0 0.0 16.28999089631971 0.0 0.0 0.0 34.48637585096406" Properties=species:S:1:pos:R:3:initial_magmoms:R:1 pbc="T T T"
Si      -1.50891012      -1.04541075      -1.47084475       0.00000000
Si       2.23620975      -0.76320279      -0.28037439       0.00000000
Si       0.71804691       2.08042848      -1.19250506       0.00000000
Si      -0.84921399       0.08286723       2.46305283       0.00000000
Si      -2.36755928       1.72902060       1.76215133       0.00000000
Si       2.29584744       2.83682728       0.44680574       0.00000000
Si      -0.68916474      -0.51043086      -3.59296508       0.00000000
Si       2.56917735      -1.71706374      -2.37283642       0.00000000
Si      -2.03651553      -3.23907102      -0.74359565       0.00000000
Si      -3.53215160       0.14388957      -1.81274287       0.00000000
