10
Lattice="16.28999089631971 0.0 0.0 0.0 16.28999089631971 0.0 0.0 0.0 34.48637585096406" Properties=species:S:1:pos:R:3:initial_magmoms:R:1 pbc="T T T"
Si       1.11549033       1.56679989      -1.35634444       0.00000000
Si       1.33273377      -1.36881190       1.42090155       0.00000000
Si      -1.40605506       1.33619865       1.39994762       0.00000000
Si      -0.77357952      -1.71663598      -1.48197838       0.00000000
Si      -0.76207878       3.42747627      -1.37807087       0.00000000
Si       2.30578434      -0.31689751      -3.00569078       0.00000000
Si       2.70585045      -2.67610069       0.01024936       0.00000000
Si       2.72176578       2.70925017      -0.03716944       0.00000000
Si       2.68323993      -0.01999435       2.78352110       0.00000000
Si       1.01151126      -3.48053347      -1.35962065       0.00000000
