10
Lattice="16.28999089631971 0.0 0.0 0.0 16.28999089631971 0.0 0.0 0.0 34.48637585096406" Properties=species:S:1:pos:R:3:initial_magmoms:R:1 pbc="T T T"
Si      -1.29635820       1.33542162      -1.55485361       0.00000000
Si      -1.59379731      -0.87840567       1.61503237       0.00000000
Si       1.27461105       1.50560325       1.42752984       0.00000000
Si       1.41833772      -1.37542986      -1.54861157       0.00000000
Si      -2.64052755      -2.71652757      -0.05321251       0.00000000
Si      -0.19696239      -0.67913010       3.76036204       0.00000000
Si       2.75810877       2.65989636      -0.04293556       0.00000000
Si      -2.70340695       2.71847520      -0.09066473       0.00000000
Si       2.87787285      -2.64293603      -0.04769468       0.00000000
Si      -2.65347810      -0.02067201      -2.93989621       0.00000000
