10
Lattice="16.28999089631971 0.0 0.0 0.0 16.28999089631971 0.0 0.0 0.0 34.48637585096406" Properties=species:S:1:pos:R:3:initial_magmoms:R:1 pbc="T T T"
Si      -1.57780053      -0.75639880      -1.63931079       0.00000000
Si      -0.11228697       2.30391294      -0.84536500       0.00000000
Si       0.22744098      -0.48987811       2.41408215       0.00000000
Si       1.51153281      -1.64241190      -1.09904693       0.00000000
Si       3.30680484       0.90986036       0.89036975       0.00000000
Si      -0.05963769      -3.60003007      -0.72718013       0.00000000
Si      -2.29584744      -2.83682728      -0.44680574       0.00000000
Si       3.24353448      -1.74142252       0.57354324       0.00000000
Si      -0.31082949      -0.88145713      -3.77446697       0.00000000
Si      -1.33649676       2.22656802      -2.90509944       0.00000000
