10
Lattice="16.28999089631971 0.0 0.0 0.0 16.28999089631971 0.0 0.0 0.0 34.48637585096406" Properties=species:S:1:pos:R:3:initial_magmoms:R:1 pbc="T T T"
Si      -1.35084825       1.31154048       1.51425967       0.00000000
Si       1.97627022       0.66560940      -1.26626943       0.00000000
Si       1.33229394      -1.42566822       1.51174907       0.00000000
Si      -2.01494268      -0.96568749      -1.16859878       0.00000000
Si       2.77242768       2.62117503       0.08255008       0.00000000
Si      -2.71789202       2.72435589       0.12040580       0.00000000
Si       2.73834900      -2.76186687       0.11180144       0.00000000
Si      -2.74162492      -2.79500888       0.22733087       0.00000000
Si      -0.00804726       2.64865626       2.89749519       0.00000000
Si       2.70674640      -0.06595821       2.89087380       0.00000000
