10
Lattice="16.28999089631971 0.0 0.0 0.0 16.28999089631971 0.0 0.0 0.0 34.48637585096406" Properties=species:S:1:pos:R:3:initial_magmoms:R:1 pbc="T T T"
Si       0.47345256       1.24838415       1.95834443       0.00000000
Si      -0.48741146       1.54324944      -1.74280446       0.00000000
Si       1.97170902      -1.34043894      -0.53809122       0.00000000
Si      -1.90772909      -1.51454646       0.52136532       0.00000000
Si      -0.17457993      -0.21375738      -3.54606358       0.00000000
Si       0.74344302      -3.32651330      -1.07866547       0.00000000
Si      -0.98409519      -2.45011537      -2.49733230       0.00000000
Si      -1.61456543       2.29234509       2.52247288       0.00000000
Si      -1.11632275      -3.01281107       2.17619499       0.00000000
Si      -2.73697154       2.46596391      -1.22602583       0.00000000
