10
Lattice="16.28999089631971 0.0 0.0 0.0 16.28999089631971 0.0 0.0 0.0 34.48637585096406" Properties=species:S:1:pos:R:3:initial_magmoms:R:1 pbc="T T T"
Si       0.04253319      -0.10686240       2.33159069       0.00000000
Si      -0.94754043       1.99703997      -0.98938019       0.00000000
Si       2.37506571       0.49928850      -1.00796836       0.00000000
Si      -0.30869550      -2.45718360      -1.03176397       0.00000000
Si       1.87250292      -1.69978005      -1.72818223       0.00000000
Si       1.22034906       2.13754122      -2.31341636       0.00000000
Si       1.92010230      -1.96753878       2.35331712       0.00000000
Si      -2.81860983       1.09405269      -2.15070955       0.00000000
Si      -1.70005698      -0.28546596      -3.72077166       0.00000000
Si      -1.93373703      -0.77247180       3.59786011       0.00000000
