10
Lattice="16.28999089631971 0.0 0.0 0.0 16.28999089631971 0.0 0.0 0.0 34.48637585096406" Properties=species:S:1:pos:R:3:initial_magmoms:R:1 pbc="T T T"
Si      -1.22826600      -1.98607436      -0.54057424       0.00000000
Si       1.64304198      -0.05927931       1.77891172       0.00000000
Si      -1.97170902       1.34043894       0.53809122       0.00000000
Si       1.34465805       0.03922632      -2.21147457       0.00000000
Si      -2.95580421      -1.10967643      -1.95924108       0.00000000
Si      -2.14628895       1.12668156      -3.00797236       0.00000000
Si       0.23674257      -3.47455016      -1.69638578       0.00000000
Si      -1.49825646       2.58882309       2.49643566       0.00000000
Si      -2.45912048       2.88368838      -1.20471324       0.00000000
Si       1.98627228      -2.16116891      -2.69552562       0.00000000
