10
Lattice="16.28999089631971 0.0 0.0 0.0 16.28999089631971 0.0 0.0 0.0 34.48637585096406" Properties=species:S:1:pos:R:3:initial_magmoms:R:1 pbc="T T T"
Si       0.58109688      -0.79322526       2.15233041       0.00000000
Si      -0.75269574      -1.91958102      -1.19095317       0.00000000
Si       1.97307738       0.84263283      -1.09511548       0.00000000
Si      -1.55352843       2.11038579      -0.03603828       0.00000000
Si      -2.01375351      -0.51259743      -2.52626639       0.00000000
Si       0.74028276       2.21102541      -2.53447415       0.00000000
Si       0.73300113       1.25993376       3.28920891       0.00000000
Si      -3.38672358       0.86019345      -1.12684296       0.00000000
Si      -2.06022888      -3.02943501       0.40773265       0.00000000
Si      -3.30188526      -0.89604774       1.48974330       0.00000000
