10
Lattice="16.28999089631971 0.0 0.0 0.0 16.28999089631971 0.0 0.0 0.0 34.48637585096406" Properties=species:S:1:pos:R:3:initial_magmoms:R:1 pbc="T T T"
Si       0.20474901       2.16841077       0.85305547       0.00000000
Si      -1.77093477      -0.15569982      -1.52536774       0.00000000
Si      -0.53401878      -1.30653945       1.92609965       0.00000000
Si       2.16658629      -0.09114255      -1.09725363       0.00000000
Si      -1.41076287       1.87838361      -2.74511705       0.00000000
Si      -0.56343852       3.46732650      -1.04404113       0.00000000
Si       2.01468204      -2.14430157      -2.23413214       0.00000000
Si      -1.07549838       2.29140027       2.85450790       0.00000000
Si      -3.79362986       0.53533827      -0.54247100       0.00000000
Si      -2.13011298      -2.98602216       1.31162107       0.00000000
