10
Lattice="16.28999089631971 0.0 0.0 0.0 16.28999089631971 0.0 0.0 0.0 34.48637585096406" Properties=species:S:1:pos:R:3:initial_magmoms:R:1 pbc="T T T"
Si       2.08340955      -0.36457020      -0.92840824       0.00000000
Si      -0.78214806       2.14923744      -0.51802014       0.00000000
Si      -1.12687704      -1.60884927      -1.34803870       0.00000000
Si       0.07956036      -0.81171441       2.27251549       0.00000000
Si       2.13864894      -2.53200357       0.09521694       0.00000000
Si       0.14980284      -3.52681758      -0.74483716       0.00000000
Si       1.67135400       0.03052746      -3.35425025       0.00000000
Si      -2.04397146      -1.72221138       2.79867442       0.00000000
Si       3.73003533       1.07566128       0.09283738       0.00000000
Si       0.91264725       3.83562711      -0.21667802       0.00000000
