10
Lattice="16.28999089631971 0.0 0.0 0.0 16.28999089631971 0.0 0.0 0.0 34.48637585096406" Properties=species:S:1:pos:R:3:initial_magmoms:R:1 pbc="T T T"
Si      -1.34439741      -1.36037790       1.38772909       0.00000000
Si       1.36958175       1.35718506       1.38121116       0.00000000
Si       1.51959636      -1.21370274      -1.37993172       0.00000000
Si      -1.33384149       1.33540533      -1.61350807       0.00000000
Si       2.41359156       0.60756813      -2.75903373       0.00000000
Si       0.62850078       2.37146562      -2.88139146       0.00000000
Si      -2.67704973       2.70027008       0.00686624       0.00000000
Si      -2.68793145      -2.69047269       0.00636274       0.00000000
Si       2.74123233      -2.69692353       0.02812366       0.00000000
Si      -2.69822673      -0.00386073       2.74259610       0.00000000
