10
Lattice="16.28999089631971 0.0 0.0 0.0 16.28999089631971 0.0 0.0 0.0 34.48637585096406" Properties=species:S:1:pos:R:3:initial_magmoms:R:1 pbc="T T T"
Si       1.73226231      -0.61225965       1.41514922       0.00000000
Si      -0.64161423       2.20039523       0.48405104       0.00000000
Si      -1.74952971      -1.31338125       0.99913984       0.00000000
Si       1.11865059      -1.21360500      -1.90482155       0.00000000
Si      -2.03844915       2.00111966      -1.66127863       0.00000000
Si       2.28390687      -2.82781368      -0.08831966       0.00000000
Si       0.95081472      -1.40131467       3.47698733       0.00000000
Si      -3.21453828       0.17509455       2.15495137       0.00000000
Si       1.34873055       3.63213962       0.39466231       0.00000000
Si      -2.59685406      -2.90232414      -0.70193609       0.00000000
