10
Lattice="16.28999089631971 0.0 0.0 0.0 16.28999089631971 0.0 0.0 0.0 34.48637585096406" Properties=species:S:1:pos:R:3:initial_magmoms:R:1 pbc="T T T"
Si      -1.35050616      -1.34881756      -1.36261955       0.00000000
Si      -1.35436689       1.35863650       1.35852256       0.00000000
Si       1.35891180      -1.35645998       1.36104007       0.00000000
Si       1.35995436       1.36238320      -1.36867536       0.00000000
Si       2.70765864      -2.70482974       0.00462118       0.00000000
Si      -2.71573848      -2.71092220      -0.00289686       0.00000000
Si       0.00117288      -2.71204621       2.71621745       0.00000000
Si      -2.71358820       0.00166972       2.71576913       0.00000000
Si       0.02261052      -2.65610635      -2.77327174       0.00000000
Si      -2.71484253       2.71590301      -0.00444874       0.00000000
