10
Lattice="16.28999089631971 0.0 0.0 0.0 16.28999089631971 0.0 0.0 0.0 34.48637585096406" Properties=species:S:1:pos:R:3:initial_magmoms:R:1 pbc="T T T"
Si       0.12171888      -1.93069473      -1.29241214       0.00000000
Si       1.00758537       0.18313381       2.25058215       0.00000000
Si      -2.19400236       0.83370265      -1.12663604       0.00000000
Si       2.75112036       0.65349453      -0.99441520       0.00000000
Si       1.51669674      -0.53671056      -2.61110292       0.00000000
Si       1.35677781       2.44027784       1.52664374       0.00000000
Si      -2.86971156       1.80089534       0.93209829       0.00000000
Si      -0.86485239       3.21151160       1.13729234       0.00000000
Si       0.09086562      -3.51623301       0.48905157       0.00000000
Si      -1.20927186       2.40432581      -2.54050927       0.00000000
