10
Lattice="16.28999089631971 0.0 0.0 0.0 16.28999089631971 0.0 0.0 0.0 34.48637585096406" Properties=species:S:1:pos:R:3:initial_magmoms:R:1 pbc="T T T"
Si       2.22163020      -0.77123376       0.38935140       0.00000000
Si       0.31192092       1.02716595      -2.17729856       0.00000000
Si      -2.00485917      -1.41061626      -0.20519405       0.00000000
Si      -0.05268186       1.25170731       2.26268687       0.00000000
Si       2.48989392       0.62289702       2.27455019       0.00000000
Si       0.86485239      -3.21151160      -1.13729234       0.00000000
Si      -1.32914997      -2.37780895      -2.26392838       0.00000000
Si      -2.69206911       0.63447921       2.29648354       0.00000000
Si       1.87243776      -3.02837779       1.11328981       0.00000000
Si      -0.34441947      -0.80718579      -3.67780161       0.00000000
