10
Lattice="16.28999089631971 0.0 0.0 0.0 16.28999089631971 0.0 0.0 0.0 34.48637585096406" Properties=species:S:1:pos:R:3:initial_magmoms:R:1 pbc="T T T"
Si      -2.13218181      -0.85504581      -0.25426819       0.00000000
Si       1.49962482      -1.30959708      -1.23750980       0.00000000
Si       0.01195686       0.23244201       2.35735203       0.00000000
Si       0.07063344       2.14902567      -1.00372653       0.00000000
Si       1.94194719       3.02409189       0.13722137       0.00000000
Si      -3.50267580       0.43867341       1.17281333       0.00000000
Si       3.38224383       0.11652237      -1.56799293       0.00000000
Si      -0.53183592       2.47287087       2.74525500       0.00000000
Si      -2.48666850       2.56863978       1.42677114       0.00000000
Si       0.37291068      -2.34193022      -3.07729001       0.00000000
