10
Lattice="16.28999089631971 0.0 0.0 0.0 16.28999089631971 0.0 0.0 0.0 34.48637585096406" Properties=species:S:1:pos:R:3:initial_magmoms:R:1 pbc="T T T"
Si       0.58039641       1.02921849      -2.04676755       0.00000000
Si       1.91493837      -1.34449515       0.37935035       0.00000000
Si      -1.94541696      -1.36979352      -0.08300875       0.00000000
Si       0.81168183       1.10521134       2.16081406       0.00000000
Si       3.03277446       1.25476983      -1.62513688       0.00000000
Si      -1.68783948       2.17144071      -2.53571566       0.00000000
Si      -3.84359292       0.04891887      -0.30372168       0.00000000
Si       3.50397900      -1.04062149      -1.30027504       0.00000000
Si      -2.60569953      -2.10253727       2.12843133       0.00000000
Si      -2.05237710      -2.72087146      -2.04352583       0.00000000
