10
Lattice="16.28999089631971 0.0 0.0 0.0 16.28999089631971 0.0 0.0 0.0 34.48637585096406" Properties=species:S:1:pos:R:3:initial_magmoms:R:1 pbc="T T T"
Si      -1.89817596       1.41871239      -0.22071293       0.00000000
Si       1.94541696       1.36979352       0.08300875       0.00000000
Si      -0.10696014      -1.35107794      -1.96051708       0.00000000
Si      -0.66028257      -0.73274375       2.21144009       0.00000000
Si      -1.91109393       2.39425533      -2.38932091       0.00000000
Si       3.86035533       0.02529837       0.46235910       0.00000000
Si      -1.39561317       3.61778094       0.49950095       0.00000000
Si      -0.72355293      -3.38402663       1.89461358       0.00000000
Si       2.52581337       2.39901201      -1.96375880       0.00000000
Si       1.73747511      -2.80742579      -2.27658489       0.00000000
