10
Lattice="16.28999089631971 0.0 0.0 0.0 16.28999089631971 0.0 0.0 0.0 34.48637585096406" Properties=species:S:1:pos:R:3:initial_magmoms:R:1 pbc="T T T"
Si       1.36298430       1.34351775      -1.37769700       0.00000000
Si      -1.35451350      -1.37324700      -1.37138599       0.00000000
Si       1.26597735      -1.43119053       1.40452741       0.00000000
Si      -1.37821545       1.30883634       1.48257013       0.00000000
Si      -0.71744418      -2.15541135       2.95027662       0.00000000
Si      -2.45379528      -0.30706650       2.85230077       0.00000000
Si       2.71238274       2.67476913      -0.01327726       0.00000000
Si      -2.72143998       2.69777061       0.01203575       0.00000000
Si       0.00368154       2.69865027      -2.73273644       0.00000000
Si      -2.71265967      -0.01539405      -2.73208119       0.00000000
