10
Lattice="16.28999089631971 0.0 0.0 0.0 16.28999089631971 0.0 0.0 0.0 34.48637585096406" Properties=species:S:1:pos:R:3:initial_magmoms:R:1 pbc="T T T"
Si      -1.56981843       1.80952578       0.07673223       0.00000000
Si       0.59784300       0.38499786       2.35242047       0.00000000
Si       1.54943964      -0.91983114      -1.72694072       0.00000000
Si      -2.18038392      -1.27407348      -0.28130553       0.00000000
Si      -3.29846436       0.03673395       1.39659554       0.00000000
Si      -0.08495235      -2.01603411      -3.05156316       0.00000000
Si       0.21652668       2.73597066       2.55375205       0.00000000
Si       2.90227527      -0.17414010       2.47146751       0.00000000
Si      -1.56845007      -3.17032722      -1.58109776       0.00000000
Si      -2.15091531       2.60275104      -2.07559818       0.00000000
