10
Lattice="16.28999089631971 0.0 0.0 0.0 16.28999089631971 0.0 0.0 0.0 34.48637585096406" Properties=species:S:1:pos:R:3:initial_magmoms:R:1 pbc="T T T"
Si      -0.48995433      -2.06850420       0.93647806       0.00000000
Si       1.52445078      -0.35173368      -1.72776840       0.00000000
Si       0.55786734       1.33732755       1.85640265       0.00000000
Si      -1.71952353       0.32928606      -1.59227135       0.00000000
Si       0.60185034      -2.25580662      -2.80236447       0.00000000
Si      -1.09713150      -3.37212774      -0.91513098       0.00000000
Si      -1.85258025       2.64328056      -1.86143766       0.00000000
Si       0.77838507       3.50050923       1.03700590       0.00000000
Si       1.41568245      -2.87955072       1.99817622       0.00000000
Si      -1.29153636       1.33139799       3.35400884       0.00000000
