10
Lattice="16.28999089631971 0.0 0.0 0.0 16.28999089631971 0.0 0.0 0.0 34.48637585096406" Properties=species:S:1:pos:R:3:initial_magmoms:R:1 pbc="T T T"
Si      -0.13305672       2.31399450      -0.26916631       0.00000000
Si      -2.06335656      -0.79130304       0.75942491       0.00000000
Si       1.71952353      -0.32928606       1.59227135       0.00000000
Si       0.45234072       0.15120378      -2.34638535       0.00000000
Si       3.24397431      -0.68101974      -0.13549705       0.00000000
Si       1.64970459       2.23963065      -1.89423422       0.00000000
Si      -1.68204024      -3.14227584       0.55809333       0.00000000
Si       2.32137387      -2.58509268      -1.21009312       0.00000000
Si       1.22956920      -2.39779026       2.52874941       0.00000000
Si      -2.39438565       2.37944772      -1.61496340       0.00000000
