10
Lattice="16.28999089631971 0.0 0.0 0.0 16.28999089631971 0.0 0.0 0.0 34.48637585096406" Properties=species:S:1:pos:R:3:initial_magmoms:R:1 pbc="T T T"
Si       0.68857830      -0.42319791       2.21009512       0.00000000
Si       2.12913558      -0.22307526      -1.00062275       0.00000000
Si      -0.51170148       2.29959414      -0.40807751       0.00000000
Si      -1.64662578      -1.44023148      -1.02124562       0.00000000
Si       0.53809128       2.23928856      -2.56723623       0.00000000
Si       1.63370781      -1.39217598      -2.93234369       0.00000000
Si      -0.00436572       0.16951374      -3.74618813       0.00000000
Si       2.75944455       1.85663646      -1.87419763       0.00000000
Si      -3.73003533      -1.07566128      -0.09283738       0.00000000
Si       2.51144559       0.99878877       2.79829507       0.00000000
