10
Lattice="16.28999089631971 0.0 0.0 0.0 16.28999089631971 0.0 0.0 0.0 34.48637585096406" Properties=species:S:1:pos:R:3:initial_magmoms:R:1 pbc="T T T"
Si      -1.33906848      -1.35120663       1.36321271       0.00000000
Si       1.38069756      -1.27654956      -1.41191095       0.00000000
Si       1.37527299       1.36418976       1.35538430       0.00000000
Si      -1.40048178       1.24862850      -1.45892970       0.00000000
Si       2.25039134       0.72011574      -2.53338473       0.00000000
Si       0.38010548       2.19388833      -2.66537140       0.00000000
Si      -2.68115271      -2.71674846      -0.02136777       0.00000000
Si      -2.69332134       0.00676035       2.72087312       0.00000000
Si      -2.68266768       2.73271266      -0.02288517       0.00000000
Si       0.01757901      -2.70778896       2.72208014       0.00000000
