10
Lattice="16.28999089631971 0.0 0.0 0.0 16.28999089631971 0.0 0.0 0.0 34.48637585096406" Properties=species:S:1:pos:R:3:initial_magmoms:R:1 pbc="T T T"
Si      -0.12171888       1.93069473       1.29241214       0.00000000
Si      -1.42579854      -1.24989912      -1.35462560       0.00000000
Si       1.39497786       1.39398417      -1.31869078       0.00000000
Si      -0.03085326      -1.58553828       1.78146371       0.00000000
Si      -2.31572124       2.76439738       0.16577610       0.00000000
Si       2.62940148       2.58418926       0.29799694       0.00000000
Si       0.04803921      -2.55816531      -2.69580151       0.00000000
Si      -2.82266604      -2.54148435       0.09669985       0.00000000
Si      -2.68006338       0.18054207      -2.70338851       0.00000000
Si       2.77549020       0.14388957      -2.70666472       0.00000000
