10
Lattice="16.28999089631971 0.0 0.0 0.0 16.28999089631971 0.0 0.0 0.0 34.48637585096406" Properties=species:S:1:pos:R:3:initial_magmoms:R:1 pbc="T T T"
Si      -1.94914737       1.27617489       0.67772664       0.00000000
Si      -0.67179960      -2.00588544      -1.21961136       0.00000000
Si       1.63792692       0.93388941      -1.66486521       0.00000000
Si       1.37911140      -1.42021107       1.72842364       0.00000000
Si       2.93263983      -1.98360072      -0.12477178       0.00000000
Si       0.96795180      -3.50671572      -0.57202584       0.00000000
Si       2.84970744       2.40674976      -0.24937112       0.00000000
Si       0.51188067       1.85277573      -3.49347183       0.00000000
Si       3.22416567      -0.79931772      -2.22682102       0.00000000
Si      -3.68114904       1.37518551      -0.99486353       0.00000000
