10
Lattice="16.28999089631971 0.0 0.0 0.0 16.28999089631971 0.0 0.0 0.0 34.48637585096406" Properties=species:S:1:pos:R:3:initial_magmoms:R:1 pbc="T T T"
Si       1.28339136      -1.42213031       1.36391624       0.00000000
Si      -1.43107650       1.30680661       1.34470731       0.00000000
Si       1.28339136       1.42091806      -1.44151894       0.00000000
Si      -1.56730977      -1.21447977      -1.42703465       0.00000000
Si       2.64292218      -0.05262973       2.71590018       0.00000000
Si       2.76545556       2.59622527      -0.09417890       0.00000000
Si      -0.07653042       2.66260702       2.71255500       0.00000000
Si      -2.75250501       2.67366793      -0.10730787       0.00000000
Si       2.33888562      -3.06884119       0.08582974       0.00000000
Si      -0.08337222      -2.76040633       2.71800385       0.00000000
