10
Lattice="16.28999089631971 0.0 0.0 0.0 16.28999089631971 0.0 0.0 0.0 34.48637585096406" Properties=species:S:1:pos:R:3:initial_magmoms:R:1 pbc="T T T"
Si       1.35508365       1.35800862       1.35738451       0.00000000
Si       1.35775521      -1.35711640      -1.35759143       0.00000000
Si      -1.35861858       1.35745964      -1.35676376       0.00000000
Si      -1.35754344      -1.35723043       1.35821219       0.00000000
Si      -2.71505430      -0.00045503      -2.71232049       0.00000000
Si       2.71426168       0.00150052      -2.71466556       0.00000000
Si      -0.00047241       2.71521160      -2.71401032       0.00000000
Si       0.00104256       2.71719898       2.71252741       0.00000000
Si      -2.71500543      -2.71483903      -0.00013795       0.00000000
Si       2.71512276       2.71483693      -0.00031038       0.00000000
