10
Lattice="16.28999089631971 0.0 0.0 0.0 16.28999089631971 0.0 0.0 0.0 34.48637585096406" Properties=species:S:1:pos:R:3:initial_magmoms:R:1 pbc="T T T"
Si      -1.35734858      -1.35713619      -1.35703965       0.00000000
Si       1.35757928       1.35806472      -1.35697068       0.00000000
Si       1.35676478      -1.35350352       1.36341963       0.00000000
Si      -1.35616272       1.35883035       1.36235055       0.00000000
Si      -0.00018571      -2.71414043      -2.71421724       0.00000000
Si      -2.71445550       0.00052128      -2.71449313       0.00000000
Si       2.71510643       0.00079821      -2.71449313       0.00000000
Si       2.71640963      -2.71384070       0.00189675       0.00000000
Si      -0.00034535       2.71581993      -2.71459659       0.00000000
Si       2.71434080       2.71687878       0.00037935       0.00000000
