10
Lattice="16.28999089631971 0.0 0.0 0.0 16.28999089631971 0.0 0.0 0.0 34.48637585096406" Properties=species:S:1:pos:R:3:initial_magmoms:R:1 pbc="T T T"
Si      -0.39638457      -2.29958992       0.51877884       0.00000000
Si       0.92822049       1.58985024       1.55688831       0.00000000
Si      -2.25134316       0.33452492      -0.80415376       0.00000000
Si       1.85185439       0.65428133      -1.46180932       0.00000000
Si       0.95330709      -0.92518633      -2.93161948       0.00000000
Si       0.31071546      -2.93413429      -1.63755199       0.00000000
Si      -1.90215072       2.59166895      -1.52809217       0.00000000
Si       3.57939260      -0.22211659      -0.04314248       0.00000000
Si      -1.06583841       2.66948628       2.22661410       0.00000000
Si       1.71962683       0.09158564       3.21171798       0.00000000
