10
Lattice="16.28999089631971 0.0 0.0 0.0 16.28999089631971 0.0 0.0 0.0 34.48637585096406" Properties=species:S:1:pos:R:3:initial_magmoms:R:1 pbc="T T T"
Si      -1.35307998       1.35803214       1.35483252       0.00000000
Si      -1.35521397      -1.35791811      -1.35697068       0.00000000
Si       1.35994508       1.35721764      -1.35700516       0.00000000
Si       1.36122498      -1.35698958       1.36217812       0.00000000
Si      -0.00368154       2.68928352       2.71925226       0.00000000
Si      -2.71238274       2.71316466      -0.00020692       0.00000000
Si      -2.71295289      -0.00032580      -2.71449313       0.00000000
Si       0.00330687       2.71487511      -2.71411378       0.00000000
Si       2.71714986       2.71254564      -0.00041384       0.00000000
Si       0.00293220      -2.71529865      -2.71466556       0.00000000
