10
Lattice="16.28999089631971 0.0 0.0 0.0 16.28999089631971 0.0 0.0 0.0 34.48637585096406" Properties=species:S:1:pos:R:3:initial_magmoms:R:1 pbc="T T T"
Si       1.78058727       0.94525983      -1.20644170       0.00000000
Si       1.40048178      -1.24862850       1.45892970       0.00000000
Si      -1.28218590       1.48408416       1.43604453       0.00000000
Si      -1.41092577      -1.28498778      -1.52491739       0.00000000
Si      -2.61721656      -2.65046445      -0.06365499       0.00000000
Si       2.78117934      -2.52517806       0.04701875       0.00000000
Si       1.03347018       0.78126840      -3.56120108       0.00000000
Si       0.06141330      -2.59983513       2.82214242       0.00000000
Si       3.65087312      -0.52851276      -1.07445502       0.00000000
Si      -2.65715964       0.11655495       2.82028015       0.00000000
