10
Lattice="16.28999089631971 0.0 0.0 0.0 16.28999089631971 0.0 0.0 0.0 34.48637585096406" Properties=species:S:1:pos:R:3:initial_magmoms:R:1 pbc="T T T"
Si       1.35509994       1.33635015       1.38899474       0.00000000
Si      -1.37497374      -1.36752921       1.38423562       0.00000000
Si       1.28218590      -1.48408416      -1.43604453       0.00000000
Si      -0.75585600       1.89078030      -1.36810288       0.00000000
Si       2.71820122       2.68947900       0.00858711       0.00000000
Si       2.68266768      -2.73271266       0.02288517       0.00000000
Si      -2.70951570       2.70822879      -0.00623514       0.00000000
Si      -0.01412343       2.70330921       2.74206845       0.00000000
Si       2.70070436      -0.00983916       2.74700001       0.00000000
Si      -2.70308115      -2.76034050       0.02193680       0.00000000
