10
Lattice="16.28999089631971 0.0 0.0 0.0 16.28999089631971 0.0 0.0 0.0 34.48637585096406" Properties=species:S:1:pos:R:3:initial_magmoms:R:1 pbc="T T T"
Si       0.89854730       1.57946767       1.46981016       0.00000000
Si       1.60867727      -1.04684427      -1.35248744       0.00000000
Si      -0.64259163      -2.00894796       1.29406749       0.00000000
Si      -1.46111526       1.73007198      -1.11753163       0.00000000
Si      -0.95330709       0.92518633       2.93161948       0.00000000
Si      -0.01594791      -2.20517730      -2.67659258       0.00000000
Si       2.75544440       0.69097295      -2.59599788       0.00000000
Si      -2.69553888       0.53986689      -2.73421935       0.00000000
Si      -1.34969166      -1.37440359       3.45039832       0.00000000
Si       2.62608551       0.70306974       2.88847700       0.00000000
