10
Lattice="16.28999089631971 0.0 0.0 0.0 16.28999089631971 0.0 0.0 0.0 34.48637585096406" Properties=species:S:1:pos:R:3:initial_magmoms:R:1 pbc="T T T"
Si      -2.11335057      -0.25282080      -1.00600263       0.00000000
Si       0.45051624      -1.80103869       1.47470723       0.00000000
Si       0.73927278       1.62731628       1.57106222       0.00000000
Si       1.83344506       0.54291216      -1.42214996       0.00000000
Si       2.89394198       1.29111512       0.58602731       0.00000000
Si      -3.37375674      -0.53631567       0.96665366       0.00000000
Si       2.31756757      -2.70775638       0.45908289       0.00000000
Si      -0.08868276       0.78473395       3.61410524       0.00000000
Si      -2.33321670       0.47292543       2.90071967       0.00000000
Si       1.04203872       2.04117677      -3.07697963       0.00000000
