10
Lattice="16.28999089631971 0.0 0.0 0.0 16.28999089631971 0.0 0.0 0.0 34.48637585096406" Properties=species:S:1:pos:R:3:initial_magmoms:R:1 pbc="T T T"
Si      -1.84265964       1.40058162       0.28909945       0.00000000
Si       1.01371041       0.25604622       2.10184232       0.00000000
Si       1.27956321       1.11651660      -1.65141552       0.00000000
Si       0.46333647      -2.10258288      -1.02972927       0.00000000
Si       1.77414390      -1.00190016      -2.74366862       0.00000000
Si       1.18086210      -1.99301634       2.73111558       0.00000000
Si      -0.91421109       2.92112280       1.89209607       0.00000000
Si       1.95517467      -3.00704766       0.70569510       0.00000000
Si       2.81587311       1.81314216       1.56319932       0.00000000
Si       0.00288333       3.03448491      -2.25461705       0.00000000
