10
Lattice="16.28999089631971 0.0 0.0 0.0 16.28999089631971 0.0 0.0 0.0 34.48637585096406" Properties=species:S:1:pos:R:3:initial_magmoms:R:1 pbc="T T T"
Si      -0.80936865       1.28555793      -1.77980837       0.00000000
Si      -1.76202577      -1.03472451       1.18867707       0.00000000
Si       1.11855285      -1.37951865      -1.57006211       0.00000000
Si       1.87106940       0.90298728       1.16132936       0.00000000
Si       1.31416317       2.19605490      -2.30596730       0.00000000
Si       2.92071555       0.17757729      -2.10870512       0.00000000
Si       2.81860983      -1.09405269       2.15070955       0.00000000
Si      -1.73781720      -0.23498325      -3.38280498       0.00000000
Si      -2.25931223       3.00149766      -1.10984117       0.00000000
Si      -0.45597339       3.08043900       2.40290855       0.00000000
