10
Lattice="16.28999089631971 0.0 0.0 0.0 16.28999089631971 0.0 0.0 0.0 34.48637585096406" Properties=species:S:1:pos:R:3:initial_magmoms:R:1 pbc="T T T"
Si      -1.35771449      -1.35741009       1.35693619       0.00000000
Si       1.35695700      -1.35705171      -1.35831564       0.00000000
Si      -1.35812336       1.35770190      -1.35786732       0.00000000
Si       1.35847197       1.35800163       1.35824667       0.00000000
Si       2.71267596      -0.00107711       2.71628643       0.00000000
Si       2.71467963      -2.71439967      -0.00072421       0.00000000
Si      -0.00112401       2.71402196      -2.71535529       0.00000000
Si       2.71471221       0.00039787      -2.71473454       0.00000000
Si       2.71454931       2.71537403      -0.00055178       0.00000000
Si      -2.71528624       2.71470614      -0.00068973       0.00000000
