10
Lattice="16.28999089631971 0.0 0.0 0.0 16.28999089631971 0.0 0.0 0.0 34.48637585096406" Properties=species:S:1:pos:R:3:initial_magmoms:R:1 pbc="T T T"
Si       1.23190030      -1.38484548       1.58899859       0.00000000
Si      -1.13492104      -1.93960143      -1.06163333       0.00000000
Si       1.17583012       1.41301089      -1.69659066       0.00000000
Si      -1.47949299       1.28870190       1.58944002       0.00000000
Si       0.73536481      -3.41337402      -0.92964665       0.00000000
Si       2.58599026       2.64103254      -0.03087222       0.00000000
Si       2.71129294      -2.64696210       0.22789989       0.00000000
Si      -0.34251517       3.05916426      -2.39749216       0.00000000
Si       2.57543434      -0.05475069       2.97036494       0.00000000
Si      -3.15492244       2.36046987       0.33919094       0.00000000
