10
Lattice="16.28999089631971 0.0 0.0 0.0 16.28999089631971 0.0 0.0 0.0 34.51877397758722" Properties=species:S:1:pos:R:3:initial_magmoms:R:1 pbc="T T T"
Si       1.21628796       1.40258529      -1.45927305       0.00000000
Si      -1.31968126       1.37806884       1.40617482       0.00000000
Si       1.39746534      -1.33003682       1.39238111       0.00000000
Si      -1.25661076      -1.44769949      -1.48250420       0.00000000
Si      -0.75517019       2.30218425      -2.56953552       0.00000000
Si      -2.28502666       0.38159325      -2.69048937       0.00000000
Si      -2.67334768       0.02211693       2.76584247       0.00000000
Si       2.72412294       2.71642266      -0.14634242       0.00000000
Si       2.91934230      -2.52334448      -0.05714931       0.00000000
Si      -2.77258636       2.68912062       0.08497491       0.00000000
