10
Lattice="16.28999089631971 0.0 0.0 0.0 16.28999089631971 0.0 0.0 0.0 34.51877397758722" Properties=species:S:1:pos:R:3:initial_magmoms:R:1 pbc="T T T"
Si      -2.20579632      -0.84279573       0.20894226       0.00000000
Si       1.75430268      -1.50340410       0.60832469       0.00000000
Si       0.22514409       0.65568879      -2.29163365       0.00000000
Si      -0.03486060       1.99979298       1.34533545       0.00000000
Si       3.46911840       0.18280638       0.88057442       0.00000000
Si      -2.18222143       2.77221591       0.91219363       0.00000000
Si      -1.96103255      -2.74335003       1.55479549       0.00000000
Si       2.46394395       1.59324345      -2.33737105       0.00000000
Si      -1.97100529       1.66718376      -2.81645738       0.00000000
Si       3.05618319       2.29193784      -0.17625296       0.00000000
