10
Lattice="16.28999089631971 0.0 0.0 0.0 16.28999089631971 0.0 0.0 0.0 34.51877397758722" Properties=species:S:1:pos:R:3:initial_magmoms:R:1 pbc="T T T"
Si       0.24476377      -1.90055430       1.34585323       0.00000000
Si      -0.87539921      -0.81770913      -2.02259417       0.00000000
Si       2.20579632       0.84279573      -0.20894226       0.00000000
Si      -1.28714525       1.67800032       1.12054907       0.00000000
Si       0.02357489       3.61501164       0.70325138       0.00000000
Si      -1.66495922       1.04350482      -3.14590474       0.00000000
Si       2.17093572       2.84258871       1.13639319       0.00000000
Si      -2.58206993      -2.34320247      -1.45745249       0.00000000
Si       2.43094041       1.49848452      -2.50057590       0.00000000
Si      -1.34453492       1.06186365       3.41318376       0.00000000
