10
Lattice="16.28999089631971 0.0 0.0 0.0 16.28999089631971 0.0 0.0 0.0 34.51877397758722" Properties=species:S:1:pos:R:3:initial_magmoms:R:1 pbc="T T T"
Si       2.28856255       0.10756287       0.56797222       0.00000000
Si      -1.14658209       1.32240821      -1.59877243       0.00000000
Si       0.85599226      -2.01432366      -1.06052089       0.00000000
Si      -0.64249242       0.78410286       2.28120897       0.00000000
Si      -1.67090832       2.61339560       1.07322380       0.00000000
Si       3.17960926      -1.45767807      -0.99110359       0.00000000
Si      -2.76375555      -0.29818845      -2.38479987       0.00000000
Si      -3.11959431      -1.96128342      -0.31460428       0.00000000
Si      -0.09749076      -3.75196167       0.16976343       0.00000000
Si       0.43775465       1.97956473      -3.25377597       0.00000000
