10
Lattice="16.28999089631971 0.0 0.0 0.0 16.28999089631971 0.0 0.0 0.0 34.51877397758722" Properties=species:S:1:pos:R:3:initial_magmoms:R:1 pbc="T T T"
Si      -2.28856255      -0.10756287      -0.56797222       0.00000000
Si       0.89104671      -1.56524094      -1.55907582       0.00000000
Si       0.95325822       2.21417168       0.25899451       0.00000000
Si       0.26261109      -2.05931664       1.76732770       0.00000000
Si      -1.43257029      -2.12188653      -1.62849311       0.00000000
Si       2.56424148       1.11042155       1.70705788       0.00000000
Si       1.24489809      -0.39910500       3.13859163       0.00000000
Si      -2.93105498       0.67653999       1.71323675       0.00000000
Si       2.60143155      -2.89170306      -0.67991667       0.00000000
Si      -0.45815625       3.52682477       1.73646790       0.00000000
