10
Lattice="16.28999089631971 0.0 0.0 0.0 16.28999089631971 0.0 0.0 0.0 34.51877397758722" Properties=species:S:1:pos:R:3:initial_magmoms:R:1 pbc="T T T"
Si       1.35935163       1.34785089       1.37840100       0.00000000
Si       1.48774941      -1.24330656      -1.34403754       0.00000000
Si      -1.35259128      -1.37247811       1.37757255       0.00000000
Si      -1.38245085       1.32432813      -1.53537176       0.00000000
Si       0.13211190      -2.40591245      -2.87771240       0.00000000
Si      -2.70873378       2.69619048      -0.00505010       0.00000000
Si       2.70676269       2.71518462       0.00917164       0.00000000
Si      -2.70910845      -2.72213135       0.00335177       0.00000000
Si       0.00560376       2.70205488       2.73826886       0.00000000
Si      -2.70910845      -0.01273878       2.73771656       0.00000000
