10
Lattice="16.28999089631971 0.0 0.0 0.0 16.28999089631971 0.0 0.0 0.0 34.51877397758722" Properties=species:S:1:pos:R:3:initial_magmoms:R:1 pbc="T T T"
Si      -0.20732283      -1.86963492       1.42562616       0.00000000
Si       1.92037923       1.33077083       0.45347339       0.00000000
Si       0.23459229      -1.08932763      -2.11261919       0.00000000
Si      -2.07218574       1.22539081      -0.00814644       0.00000000
Si      -3.10317984       0.17973246      -1.91955557       0.00000000
Si       0.38491641      -1.17094053       3.58674425       0.00000000
Si       1.68130719       2.29201114       2.57410093       0.00000000
Si      -1.89403830      -1.74135117      -2.91290289       0.00000000
Si       1.91519901       3.31153708      -0.86110582       0.00000000
Si       3.90927420      -0.00391612       0.56061972       0.00000000
