10
Lattice="16.28999089631971 0.0 0.0 0.0 16.28999089631971 0.0 0.0 0.0 34.51877397758722" Properties=species:S:1:pos:R:3:initial_magmoms:R:1 pbc="T T T"
Si      -2.02386960       0.68880636      -0.90994991       0.00000000
Si       2.19709746       0.61740729      -0.52247645       0.00000000
Si      -0.39591216      -2.30734329      -0.06851980       0.00000000
Si      -0.04553055       0.78669297       2.28932089       0.00000000
Si      -2.15021484       2.83545369      -0.12941096       0.00000000
Si       3.23714880      -1.27493685       0.80991445       0.00000000
Si       2.02535199       2.98033695      -0.07210976       0.00000000
Si      -3.59699490      -0.95519673      -0.21235962       0.00000000
Si      -2.38526325      -2.65295030      -1.32106874       0.00000000
Si       0.90336195      -1.05578748       3.60645448       0.00000000
