10
Lattice="16.28999089631971 0.0 0.0 0.0 16.28999089631971 0.0 0.0 0.0 34.51877397758722" Properties=species:S:1:pos:R:3:initial_magmoms:R:1 pbc="T T T"
Si       1.35741312      -1.35653346      -1.35959171       0.00000000
Si      -1.35883035       1.35799956      -1.35917748       0.00000000
Si       1.36357074       1.34223084       1.37039609       0.00000000
Si      -1.34162811      -1.38225537       1.37329567       0.00000000
Si      -2.66128101       0.00996948       2.69688428       0.00000000
Si       2.71228500      -2.71546155       0.00189853       0.00000000
Si      -2.71770957      -2.71178001       0.00231276       0.00000000
Si       2.71422351       0.00035838      -2.71659451       0.00000000
Si      -0.00123804      -2.71461447      -2.71652547       0.00000000
Si       2.71699281       2.71474479       0.00058682       0.00000000
