10
Lattice="16.28999089631971 0.0 0.0 0.0 16.28999089631971 0.0 0.0 0.0 34.51877397758722" Properties=species:S:1:pos:R:3:initial_magmoms:R:1 pbc="T T T"
Si      -1.98140157      -0.27238509      -1.15662121       0.00000000
Si       0.81709011       2.22202116       0.31560533       0.00000000
Si      -0.78995097      -0.57707325       2.18535028       0.00000000
Si       0.96708843      -1.91084958      -1.10532628       0.00000000
Si      -2.49307047      -2.37407202      -0.14470278       0.00000000
Si       2.06744535       1.95001074       2.34562104       0.00000000
Si       3.12230430      -2.01098421      -0.23320897       0.00000000
Si       0.32273748      -2.65779495       2.69609035       0.00000000
Si      -0.69115212      -3.69484893      -0.84546880       0.00000000
Si      -2.91423213      -1.56758670       2.00654293       0.00000000
