10
Lattice="16.28999089631971 0.0 0.0 0.0 16.28999089631971 0.0 0.0 0.0 34.51877397758722" Properties=species:S:1:pos:R:3:initial_magmoms:R:1 pbc="T T T"
Si      -0.08245998       1.93388364      -1.35213565       0.00000000
Si      -1.86038316      -1.42161201       0.42233744       0.00000000
Si       1.90672821      -1.21290453      -0.76894064       0.00000000
Si       1.00466946       1.04943438       1.90105350       0.00000000
Si       3.15450963       0.84367539      -0.66258824       0.00000000
Si       0.03578913      -0.13711293       3.63424211       0.00000000
Si       0.33870168       1.12739832      -3.50338137       0.00000000
Si      -0.85232538      -3.30536155       1.46394202       0.00000000
Si       2.04182118       2.92439709      -1.17332830       0.00000000
Si       3.34950093       0.75922803       1.66256316       0.00000000
