10
Lattice="16.28999089631971 0.0 0.0 0.0 16.28999089631971 0.0 0.0 0.0 34.51877397758722" Properties=species:S:1:pos:R:3:initial_magmoms:R:1 pbc="T T T"
Si      -2.00353968       1.01727792      -0.39672449       0.00000000
Si       0.12634524      -2.14664733      -0.78053895       0.00000000
Si       2.00181294       0.99452079      -0.58668141       0.00000000
Si      -1.02960945       0.54512856       2.19190885       0.00000000
Si      -3.10700799      -0.31874643       1.22807511       0.00000000
Si      -1.56375855       2.97114939       0.83048765       0.00000000
Si       2.15021484      -2.83545369       0.12941096       0.00000000
Si       1.47916458       1.94277798      -2.71176188       0.00000000
Si       0.08838954      -1.06629453       3.53938447       0.00000000
Si       2.10468429      -2.04876072       2.41873184       0.00000000
