10
Lattice="16.28999089631971 0.0 0.0 0.0 16.28999089631971 0.0 0.0 0.0 34.51877397758722" Properties=species:S:1:pos:R:3:initial_magmoms:R:1 pbc="T T T"
Si      -1.35505107       1.35884664       1.36231870       0.00000000
Si       1.35892809      -1.35643572       1.36266388       0.00000000
Si      -1.35415512      -1.35084825      -1.39388268       0.00000000
Si       1.35972630       1.35865116      -1.39690998       0.00000000
Si      -2.71440270      -2.71212210       0.00075941       0.00000000
Si       2.71524978       2.71339272       0.00086297       0.00000000
Si      -2.71454931       2.71521720       0.00000000       0.00000000
Si       2.71692765      -2.71420722       0.00597175       0.00000000
Si       0.00066789      -2.71415835       2.72001187       0.00000000
Si      -2.71435383       0.00128691       2.71987380       0.00000000
