10
Lattice="16.28999089631971 0.0 0.0 0.0 16.28999089631971 0.0 0.0 0.0 34.51877397758722" Properties=species:S:1:pos:R:3:initial_magmoms:R:1 pbc="T T T"
Si      -2.14146711      -0.72070218       0.50034991       0.00000000
Si       0.13131369       0.63255699      -2.28856147       0.00000000
Si       0.08184096       2.06413848       1.19597263       0.00000000
Si       1.77218910      -1.61775990       0.36224022       0.00000000
Si       3.22441002      -0.49479246      -1.14574779       0.00000000
Si       1.68230088       3.23304372      -0.16600088       0.00000000
Si       0.91711071       1.38104991       3.33372150       0.00000000
Si       0.52913178       2.96437275      -2.20388688       0.00000000
Si      -2.28141450      -1.23434217       2.77779633       0.00000000
Si       1.93324833      -0.61996482      -3.26105944       0.00000000
