10
Lattice="16.28999089631971 0.0 0.0 0.0 16.28999089631971 0.0 0.0 0.0 34.51877397758722" Properties=species:S:1:pos:R:3:initial_magmoms:R:1 pbc="T T T"
Si      -0.16560414       2.01526848       1.21602805       0.00000000
Si       0.22503006      -0.19393245      -2.34258339       0.00000000
Si      -1.84063968      -1.29929040       0.81968326       0.00000000
Si       1.99668159      -1.33726239       0.95706806       0.00000000
Si       1.97187192       1.33672482      -2.65811968       0.00000000
Si       3.18164877       1.63605357      -0.67159764       0.00000000
Si       1.72493181      -3.27591900      -0.59748579       0.00000000
Si      -0.90399726       0.92294253       3.52726837       0.00000000
Si       1.20228345      -2.32766181      -2.72256626       0.00000000
Si      -1.87598898       3.34173060       0.33686890       0.00000000
