10
Lattice="16.28999089631971 0.0 0.0 0.0 16.28999089631971 0.0 0.0 0.0 34.51877397758722" Properties=species:S:1:pos:R:3:initial_magmoms:R:1 pbc="T T T"
Si       1.35501197      -1.35575154       1.35910845       0.00000000
Si      -1.35957407       1.35907470       1.35852163       0.00000000
Si      -1.36213463      -1.35703845      -1.36146263       0.00000000
Si       1.35538664       1.35317772      -1.38365821       0.00000000
Si       2.71152914      -2.71549087      -0.00103556       0.00000000
Si       2.71178978       0.00175932       2.71611125       0.00000000
Si      -2.71580105      -2.71299036      -0.00179498       0.00000000
Si      -0.00304134      -2.71324611       2.71628384       0.00000000
Si       2.71182236       2.71845891      -0.00307217       0.00000000
Si      -0.00317981       2.71640637       2.71631836       0.00000000
