10
Lattice="16.28999089631971 0.0 0.0 0.0 16.28999089631971 0.0 0.0 0.0 34.51877397758722" Properties=species:S:1:pos:R:3:initial_magmoms:R:1 pbc="T T T"
Si       1.35016407       1.34768799      -1.37029254       0.00000000
Si       1.46349360      -1.23158916       1.38889817       0.00000000
Si      -1.36875096      -1.36568844      -1.36628836       0.00000000
Si      -1.30974858       1.36570556       1.46131859       0.00000000
Si      -0.09725130      -2.22356871       2.80741346       0.00000000
Si      -1.63137834      -0.31410378       3.28670690       0.00000000
Si       2.69643483       2.70498938      -0.02271337       0.00000000
Si       2.71003698      -2.71156824      -0.00538493       0.00000000
Si      -0.00622278       2.70424004      -2.72591459       0.00000000
Si      -2.73474728       2.69770938       0.02109098       0.00000000
