10
Lattice="16.28999089631971 0.0 0.0 0.0 16.28999089631971 0.0 0.0 0.0 34.51877397758722" Properties=species:S:1:pos:R:3:initial_magmoms:R:1 pbc="T T T"
Si       1.15316910       0.26867097       2.03788600       0.00000000
Si      -0.39781809      -2.33181576      -0.08467460       0.00000000
Si      -1.94579163       1.39012344       0.15353959       0.00000000
Si       1.09243998      -0.07933230      -2.22798099       0.00000000
Si      -0.44729082      -0.90023427       3.39985951       0.00000000
Si      -0.68522256       0.98741835      -3.40762623       0.00000000
Si       3.02277240      -1.11094542       1.73463840       0.00000000
Si      -1.78468353       2.72771556      -1.80664460       0.00000000
Si      -0.52913178      -2.96437275       2.20388688       0.00000000
Si      -2.48526756      -2.51201574      -1.31350912       0.00000000
