10
Lattice="16.28999089631971 0.0 0.0 0.0 16.28999089631971 0.0 0.0 0.0 34.51877397758722" Properties=species:S:1:pos:R:3:initial_magmoms:R:1 pbc="T T T"
Si      -0.08184096      -2.06413848      -1.19597263       0.00000000
Si       0.83526975      -0.68308857       2.13774887       0.00000000
Si       1.60045992       1.16890524      -1.36197351       0.00000000
Si      -1.94041593       1.51005042       0.29192543       0.00000000
Si       0.44729082       0.90023427      -3.39985951       0.00000000
Si      -1.34817669       2.20874481       2.45304352       0.00000000
Si      -2.22330807      -2.78484066      -0.69562272       0.00000000
Si      -0.93524148       0.09961335       3.50987090       0.00000000
Si       2.91750642       0.46193553       2.14903651       0.00000000
Si       0.04947273      -1.43158149      -3.48453411       0.00000000
