10
Lattice="16.28999089631971 0.0 0.0 0.0 16.28999089631971 0.0 0.0 0.0 34.51877397758722" Properties=species:S:1:pos:R:3:initial_magmoms:R:1 pbc="T T T"
Si      -1.74599478       0.43458203       1.54374947       0.00000000
Si      -0.06577902       1.29394306      -2.00916636       0.00000000
Si       0.43870599      -2.27491479      -0.91819990       0.00000000
Si       1.15689951      -0.49904415      -2.77613943       0.00000000
Si       1.23349509       2.54549888       1.66580793       0.00000000
Si       1.22662071      -2.87810091       1.31381979       0.00000000
Si      -0.39035727       1.59718793       3.07742433       0.00000000
Si       3.09977523       0.52144357       1.69266355       0.00000000
Si      -3.35697804       1.53833216       0.09568609       0.00000000
Si       2.10916404      -1.33463970       2.93028107       0.00000000
