10
Lattice="16.28999089631971 0.0 0.0 0.0 16.28999089631971 0.0 0.0 0.0 34.51877397758722" Properties=species:S:1:pos:R:3:initial_magmoms:R:1 pbc="T T T"
Si       1.37272572      -1.32020676       1.31175902       0.00000000
Si      -1.36384767       1.40794470       1.29030559       0.00000000
Si       1.35457866       1.23225705      -1.50648440       0.00000000
Si      -0.95900859      -1.60223553      -1.47452000       0.00000000
Si      -1.90790109       0.24024492      -2.79165360       0.00000000
Si      -2.58286095      -2.55054648      -0.06290360       0.00000000
Si      -0.39527685       2.26755171      -2.81077701       0.00000000
Si       0.01252701      -2.67995424       2.65818871       0.00000000
Si      -2.71125873       0.04061097       2.65953495       0.00000000
Si       2.63034630      -2.75007780      -0.05930674       0.00000000
