10
Lattice="16.28999089631971 0.0 0.0 0.0 16.28999089631971 0.0 0.0 0.0 34.51877397758722" Properties=species:S:1:pos:R:3:initial_magmoms:R:1 pbc="T T T"
Si      -1.35679410      -1.35645527       1.35897037       0.00000000
Si       1.35801585       1.35821133       1.35883230       0.00000000
Si      -1.36010097       1.36182771      -1.35800385       0.00000000
Si       1.36368477      -1.35873750      -1.35935008       0.00000000
Si      -2.71316466      -2.71507157       0.00220920       0.00000000
Si       0.00066789      -2.71358247       2.71555895       0.00000000
Si       2.71580364      -2.71369313       0.00165690       0.00000000
Si       2.72388348       0.00100998      -2.70577977       0.00000000
Si       2.71534752       2.71440270       0.00241632       0.00000000
Si      -2.71384884       2.71603170       0.00186401       0.00000000
