10
Lattice="16.28999089631971 0.0 0.0 0.0 16.28999089631971 0.0 0.0 0.0 34.51877397758722" Properties=species:S:1:pos:R:3:initial_magmoms:R:1 pbc="T T T"
Si      -1.41428151       1.20523536      -1.35520782       0.00000000
Si      -1.45647261      -1.04638703       1.46456336       0.00000000
Si       0.91882116       1.65091836       1.43905397       0.00000000
Si       1.30518738      -1.50110609      -1.32852480       0.00000000
Si       1.87646139      -0.32315990       2.40882495       0.00000000
Si       0.32118993      -2.11313768       2.64420860       0.00000000
Si       2.62153341       2.52974757       0.08795389       0.00000000
Si      -2.75527431       2.47887390       0.11425721       0.00000000
Si      -0.04852791       2.56643265      -2.69619390       0.00000000
Si      -1.02403827       3.32329863       1.50011772       0.00000000
