10
Lattice="16.28999089631971 0.0 0.0 0.0 16.28999089631971 0.0 0.0 0.0 34.51877397758722" Properties=species:S:1:pos:R:3:initial_magmoms:R:1 pbc="T T T"
Si      -1.34446257      -0.81806751      -1.77033083       0.00000000
Si       0.60751926       2.20947786      -0.65057570       0.00000000
Si      -0.99153972       0.44450523       2.12839427       0.00000000
Si       1.89089433      -1.43182584       0.38906132       0.00000000
Si       2.12328747       1.59814674       1.83232658       0.00000000
Si       2.30047380      -0.70863129       2.68991148       0.00000000
Si      -2.45905695       1.20011688      -2.49463867       0.00000000
Si       0.04851162      -1.44783891       3.46078518       0.00000000
Si       3.34508634      -1.31812164      -1.53035618       0.00000000
Si      -1.08289404       3.07840275      -2.18707622       0.00000000
