10
Lattice="16.28999089631971 0.0 0.0 0.0 16.28999089631971 0.0 0.0 0.0 34.51877397758722" Properties=species:S:1:pos:R:3:initial_magmoms:R:1 pbc="T T T"
Si       1.03599513       1.87229115       0.96611199       0.00000000
Si       0.63498420      -1.73697012      -1.47529871       0.00000000
Si      -1.13582025      -1.13901309       1.75403796       0.00000000
Si      -1.57802859       0.93341700      -1.57878605       0.00000000
Si      -1.05542910      -0.86804523      -3.01179923       0.00000000
Si       2.15075241      -2.34830124       1.00760358       0.00000000
Si      -0.99786024       2.66432724       1.97395719       0.00000000
Si      -3.30957414      -0.28937556       1.11005535       0.00000000
Si      -0.96407478      -3.50194275       1.30367127       0.00000000
Si       2.55542859      -1.37114559      -2.74020537       0.00000000
