10
Lattice="16.28999089631971 0.0 0.0 0.0 16.28999089631971 0.0 0.0 0.0 34.51877397758722" Properties=species:S:1:pos:R:3:initial_magmoms:R:1 pbc="T T T"
Si      -0.92703132       1.98687501       0.95327099       0.00000000
Si       0.55825830       0.16633719      -2.34230724       0.00000000
Si       1.74985551      -1.03529466       1.30429260       0.00000000
Si      -1.51262424      -2.02730679       0.01912341       0.00000000
Si      -2.29711806       0.46636641       2.54230019       0.00000000
Si      -1.61549559       1.01597472      -2.98628984       0.00000000
Si      -1.34374581       2.95463133      -1.43173599       0.00000000
Si       0.73000377      -2.19659247      -2.79267393       0.00000000
Si       0.39527685      -2.26755171       2.81077701       0.00000000
Si      -3.52891899      -1.04484060       1.13977603       0.00000000
