10
Lattice="16.28999089631971 0.0 0.0 0.0 16.28999089631971 0.0 0.0 0.0 34.51877397758722" Properties=species:S:1:pos:R:3:initial_magmoms:R:1 pbc="T T T"
Si      -1.35538664      -1.35317772       1.38365821       0.00000000
Si       1.35643572       1.36528119       1.38058604       0.00000000
Si      -1.41981848       1.30637655      -1.41228810       0.00000000
Si       1.32628293      -1.37186235      -1.53032166       0.00000000
Si       0.06885783       2.50776405      -2.75232979       0.00000000
Si       2.70873378      -2.69619048       0.00505010       0.00000000
Si      -2.71752128      -2.71021617       0.02219558       0.00000000
Si       2.71668330       2.72655504      -0.01405605       0.00000000
Si      -2.72103242       2.72719035      -0.00728692       0.00000000
Si      -0.00037467      -2.70892926       2.74276666       0.00000000
