10
Lattice="16.28999089631971 0.0 0.0 0.0 16.28999089631971 0.0 0.0 0.0 34.51877397758722" Properties=species:S:1:pos:R:3:initial_magmoms:R:1 pbc="T T T"
Si      -1.35685926      -1.35786924      -1.35869422       0.00000000
Si       1.35816246       1.35685926      -1.35876326       0.00000000
Si      -1.36153449       1.35905841       1.35662309       0.00000000
Si       1.36085031      -1.35840681       1.35910845       0.00000000
Si       2.71407690       2.71404432      -0.00214017       0.00000000
Si       2.70425403       0.02094894       2.72415413       0.00000000
Si      -2.71497285      -2.71515204      -0.00065586       0.00000000
Si      -2.71427238       2.71588509      -0.00324477       0.00000000
Si       0.00032580       2.71472850      -2.71562799       0.00000000
Si      -2.71476108      -0.00026064      -2.71607673       0.00000000
