10
Lattice="16.28999089631971 0.0 0.0 0.0 16.28999089631971 0.0 0.0 0.0 34.51877397758722" Properties=species:S:1:pos:R:3:initial_magmoms:R:1 pbc="T T T"
Si       1.45222092       1.12296744      -1.50798800       0.00000000
Si      -0.81709011      -2.22202116      -0.31560533       0.00000000
Si       1.25035524      -0.27201042       2.03001571       0.00000000
Si      -1.77218910       1.61775990      -0.36224022       0.00000000
Si      -0.38631735       0.68212746       3.47155504       0.00000000
Si       3.46929759       0.05921415      -0.82903786       0.00000000
Si       3.26238201       0.89430471       1.38372035       0.00000000
Si      -1.60704108      -2.79909441       1.86974496       0.00000000
Si       0.16105923       0.99779508      -3.62329965       0.00000000
Si      -1.64087541       2.25031689      -2.65080169       0.00000000
