10
Lattice="16.28999089631971 0.0 0.0 0.0 16.28999089631971 0.0 0.0 0.0 34.51877397758722" Properties=species:S:1:pos:R:3:initial_magmoms:R:1 pbc="T T T"
Si       1.48867631       1.20138750      -1.34004169       0.00000000
Si      -1.30121394       1.42081380       1.40500118       0.00000000
Si       1.41981848      -1.30637655       1.41228810       0.00000000
Si      -1.52577909      -1.17278226      -1.42136796       0.00000000
Si      -0.27298456       1.09230966      -3.05931922       0.00000000
Si       2.74610141      -2.67823890      -0.11803356       0.00000000
Si      -2.65534398       0.05605389       2.79422037       0.00000000
Si       0.06443184      -2.65955427       2.79594631       0.00000000
Si      -2.75060790      -2.70554094       0.11328378       0.00000000
Si      -2.60824959       2.87336052      -0.12890698       0.00000000
