10
Lattice="16.28999089631971 0.0 0.0 0.0 16.28999089631971 0.0 0.0 0.0 34.51877397758722" Properties=species:S:1:pos:R:3:initial_magmoms:R:1 pbc="T T T"
Si      -0.11098377       2.27704878      -0.60041989       0.00000000
Si       1.58301333      -1.42421841      -1.02976464       0.00000000
Si      -2.26147554      -0.65523267       0.23752382       0.00000000
Si       0.78169194      -0.04388526       2.23944123       0.00000000
Si      -0.49607937       1.74127068       3.13220078       0.00000000
Si       3.33562185      -1.47580884       0.50925576       0.00000000
Si      -0.77603931       3.34094868       1.37343375       0.00000000
Si      -2.29258944      -2.86275573       1.08575412       0.00000000
Si      -3.23310888      -0.89611290      -1.88890289       0.00000000
Si      -1.61963325       2.56559355      -2.37768900       0.00000000
