10
Lattice="16.28999089631971 0.0 0.0 0.0 16.28999089631971 0.0 0.0 0.0 34.51877397758722" Properties=species:S:1:pos:R:3:initial_magmoms:R:1 pbc="T T T"
Si      -0.97163334      -0.24088023      -2.12642670       0.00000000
Si      -0.03111390      -2.20752306       0.84823031       0.00000000
Si       2.26147554       0.65523267      -0.23752382       0.00000000
Si      -1.51571934       1.18232820       1.47643783       0.00000000
Si      -1.44039438       2.07580212      -2.62650046       0.00000000
Si      -2.28530781      -2.48205843       1.41199124       0.00000000
Si       3.04316748       0.61134741       2.00191742       0.00000000
Si       2.15049177       2.93228145      -0.83794371       0.00000000
Si      -3.26256120      -0.34832907       1.79197411       0.00000000
Si      -0.30594249       1.48165695       3.46295986       0.00000000
