10
Lattice="16.28999089631971 0.0 0.0 0.0 16.28999089631971 0.0 0.0 0.0 34.51877397758722" Properties=species:S:1:pos:R:3:initial_magmoms:R:1 pbc="T T T"
Si       1.36053072       1.35477414       1.38904660       0.00000000
Si      -1.35413004      -1.36475991       1.38921919       0.00000000
Si       1.30121394      -1.42081380      -1.40500118       0.00000000
Si      -1.30703565       1.45254672      -1.53390816       0.00000000
Si      -2.69178339       2.70563868       0.02655531       0.00000000
Si      -2.72216424      -2.70251100       0.02793261       0.00000000
Si       2.69908979       2.72763018       0.02002780       0.00000000
Si      -0.22456515      -2.59359606      -2.82636915       0.00000000
Si       2.72103242      -2.72719035       0.00728692       0.00000000
Si       0.00434603       2.70868491       2.75088203       0.00000000
