10
Lattice="16.28999089631971 0.0 0.0 0.0 16.28999089631971 0.0 0.0 0.0 34.51877397758722" Properties=species:S:1:pos:R:3:initial_magmoms:R:1 pbc="T T T"
Si       1.35639426       1.35733167       1.35779673       0.00000000
Si      -1.35801889      -1.35769005       1.35796933       0.00000000
Si      -1.36020175       1.35653346      -1.36024757       0.00000000
Si       1.35957407      -1.35907470      -1.35852163       0.00000000
Si       2.71382041      -0.00001629       2.71524828       0.00000000
Si       2.71422766       2.71490769       0.00100105       0.00000000
Si       2.71458604      -2.71482624       0.00058682       0.00000000
Si      -0.00123748      -2.71437012       2.71552443       0.00000000
Si      -0.00114066       2.71427238       2.71562799       0.00000000
Si      -2.71564378      -0.00026064       2.71493761       0.00000000
