10
Lattice="16.28999089631971 0.0 0.0 0.0 16.28999089631971 0.0 0.0 0.0 34.51877397758722" Properties=species:S:1:pos:R:3:initial_magmoms:R:1 pbc="T T T"
Si       1.86960330      -1.37961639      -0.30324760       0.00000000
Si      -1.15316910      -0.26867097      -2.03788600       0.00000000
Si      -1.60045992      -1.16890524       1.36197351       0.00000000
Si       0.57572118       2.20686399       0.78889250       0.00000000
Si       0.95420304       1.65365835       3.09640479       0.00000000
Si      -1.68230088      -3.23304372       0.16600088       0.00000000
Si       3.50272467       0.13947498      -1.12555429       0.00000000
Si      -1.55098719      -2.60048673      -2.12256060       0.00000000
Si       2.77985592      -1.62378720       1.85062154       0.00000000
Si      -3.09896073       1.12145247      -1.88434641       0.00000000
