10
Lattice="16.28999089631971 0.0 0.0 0.0 16.28999089631971 0.0 0.0 0.0 34.51877397758722" Properties=species:S:1:pos:R:3:initial_magmoms:R:1 pbc="T T T"
Si      -1.86960330       1.37961639       0.30324760       0.00000000
Si       0.91025262      -0.24417081       2.15386914       0.00000000
Si       1.63312137       1.51909137      -0.82230669       0.00000000
Si      -0.32749416      -2.34821979      -0.67649931       0.00000000
Si       3.50505414      -0.00925272      -0.81309018       0.00000000
Si      -3.02277240       1.11094542      -1.73463840       0.00000000
Si       1.48266693      -2.57688252       2.21520904       0.00000000
Si       1.68958251      -3.41197308       0.00245083       0.00000000
Si       2.68931610       1.28502036       2.41918059       0.00000000
Si      -3.47006322       0.21071115       1.66522111       0.00000000
