10
Lattice="16.28999089631971 0.0 0.0 0.0 16.28999089631971 0.0 0.0 0.0 34.51877397758722" Properties=species:S:1:pos:R:3:initial_magmoms:R:1 pbc="T T T"
Si       0.88254333       1.54346121       1.61646128       0.00000000
Si      -0.78791472       0.60318612      -2.23201969       0.00000000
Si      -1.70292402      -1.00051551       1.49398515       0.00000000
Si       1.85052771      -1.53414333      -1.18906887       0.00000000
Si      -1.22662071       2.87810091      -1.31381979       0.00000000
Si      -2.93542542      -0.68944167      -2.15704487       0.00000000
Si       3.02200677       0.27494262      -2.27416714       0.00000000
Si       2.33445474       0.27842868       3.09957849       0.00000000
Si       1.87315452       3.39954448       0.37884376       0.00000000
Si      -0.38289645      -2.43915057       3.08550863       0.00000000
