10
Lattice="16.28999089631971 0.0 0.0 0.0 16.28999089631971 0.0 0.0 0.0 34.51877397758722" Properties=species:S:1:pos:R:3:initial_magmoms:R:1 pbc="T T T"
Si      -1.76560794      -0.95617413      -1.28282191       0.00000000
Si      -0.75173463       0.68483160       2.20623415       0.00000000
Si       1.03413807       1.80271656      -1.31319845       0.00000000
Si       1.68476067      -1.83598074       0.03358679       0.00000000
Si       1.26363159       2.05835553       1.91558591       0.00000000
Si      -0.37867734      -2.28582746      -2.70668762       0.00000000
Si       2.35071216       0.43297191      -2.71034661       0.00000000
Si       2.86796853       2.55428829       0.06593090       0.00000000
Si       3.56234607      -0.97850772      -1.25192759       0.00000000
Si      -3.46832019      -1.83500334       0.06827817       0.00000000
