10
Lattice="16.28999089631971 0.0 0.0 0.0 16.28999089631971 0.0 0.0 0.0 34.51877397758722" Properties=species:S:1:pos:R:3:initial_magmoms:R:1 pbc="T T T"
Si      -1.35785295      -1.35645201      -1.35714088       0.00000000
Si       1.35757602      -1.35360126       1.36062727       0.00000000
Si       1.35765747       1.35843939      -1.35720991       0.00000000
Si      -1.35933534       1.35790182       1.36193899       0.00000000
Si       2.71305063       2.71329498      -0.00051778       0.00000000
Si      -0.00048870      -2.71378368      -2.71404012       0.00000000
Si       2.71373481      -2.71437338       0.00082845       0.00000000
Si       2.71023246      -0.00047241       2.71835497       0.00000000
Si       2.71528236       0.00100998      -2.71417820       0.00000000
Si      -2.71552671       0.00084708      -2.71404012       0.00000000
