10
Lattice="16.28999089631971 0.0 0.0 0.0 16.28999089631971 0.0 0.0 0.0 34.51877397758722" Properties=species:S:1:pos:R:3:initial_magmoms:R:1 pbc="T T T"
Si       1.37523438       1.33840269      -1.38907076       0.00000000
Si      -1.34452773      -1.37749869      -1.38693059       0.00000000
Si       1.40846598      -1.36612827       1.36663354       0.00000000
Si      -1.46546469       1.39057956       1.62414374       0.00000000
Si      -2.69324199       2.68019370      -0.01843304       0.00000000
Si       2.72109789       2.67913485       0.00383159       0.00000000
Si      -2.69803125      -2.72165175      -0.00317573       0.00000000
Si       0.01500309       2.69588097      -2.74842084       0.00000000
Si      -2.69939961      -0.01857060      -2.74842084       0.00000000
Si       2.72504007      -2.73587292      -0.03051461       0.00000000
