10
Lattice="16.28999089631971 0.0 0.0 0.0 16.28999089631971 0.0 0.0 0.0 34.51877397758722" Properties=species:S:1:pos:R:3:initial_magmoms:R:1 pbc="T T T"
Si       1.31657409      -1.36974465      -1.39714816       0.00000000
Si      -1.40846598       1.36612827      -1.36663354       0.00000000
Si       1.83383046       0.75157173       1.37912935       0.00000000
Si      -1.03413807      -1.80271656       1.31319845       0.00000000
Si       0.22949352       0.25563897       3.22878437       0.00000000
Si       2.52820800      -2.78122428       0.06127086       0.00000000
Si       2.67395849      -0.00754227      -2.75743024       0.00000000
Si      -0.03323160       2.70453096      -2.75570430       0.00000000
Si      -0.03608235      -2.72287350      -2.75487585       0.00000000
Si      -2.75299371      -0.01137042      -2.75356414       0.00000000
