10
Lattice="16.28999089631971 0.0 0.0 0.0 16.28999089631971 0.0 0.0 0.0 34.51877397758722" Properties=species:S:1:pos:R:3:initial_magmoms:R:1 pbc="T T T"
Si      -2.19375801      -0.35961804      -0.67121794       0.00000000
Si       0.59095233      -1.48206420       1.72866665       0.00000000
Si       1.82974167       0.20331549      -1.52897543       0.00000000
Si       0.33309792       2.26103571       0.77456720       0.00000000
Si       1.31070969       2.51972091      -1.34160742       0.00000000
Si       2.39028057      -0.11003895       2.28852696       0.00000000
Si       3.43714113      -0.42427305       0.18488266       0.00000000
Si      -3.01990536      -0.97896384       1.45707278       0.00000000
Si      -2.84635170       1.83500334      -1.52611037       0.00000000
Si      -1.32949206      -1.84788873       2.99357331       0.00000000
