10
Lattice="16.28999089631971 0.0 0.0 0.0 16.28999089631971 0.0 0.0 0.0 34.51877397758722" Properties=species:S:1:pos:R:3:initial_magmoms:R:1 pbc="T T T"
Si      -0.73985922      -0.72233118      -2.10188384       0.00000000
Si      -0.92460411       1.93065822       0.96973646       0.00000000
Si       2.19522478       0.63962685      -0.66655790       0.00000000
Si      -0.10748142      -1.96276581       1.35486264       0.00000000
Si       1.92158469       2.98844937      -0.57404753       0.00000000
Si      -1.20334230      -3.40822475      -0.22050605       0.00000000
Si       2.20460782      -2.51375877       1.44682070       0.00000000
Si       3.60394488      -0.70061661       0.66997526       0.00000000
Si       0.87472413       3.30268347       1.52959677       0.00000000
Si      -0.12566106      -2.97307324      -2.32238989       0.00000000
