10
Lattice="16.28999089631971 0.0 0.0 0.0 16.28999089631971 0.0 0.0 0.0 34.51877397758722" Properties=species:S:1:pos:R:3:initial_magmoms:R:1 pbc="T T T"
Si       0.17718633      -2.30677803       0.85758490       0.00000000
Si       2.35208052       0.72324342       0.21567342       0.00000000
Si      -1.51576821       0.61133112      -2.48290228       0.00000000
Si      -2.12328747      -1.59814674      -1.83232658       0.00000000
Si      -3.11482719      -1.15364151       0.29606769       0.00000000
Si      -2.15075241       2.34830124      -1.00760358       0.00000000
Si      -0.23239314      -3.02997258      -1.44326527       0.00000000
Si      -0.81893088      -1.52718750       3.01580341       0.00000000
Si      -3.28657266       1.20928815       0.74643439       0.00000000
Si       2.06231400       1.85095125       2.38483439       0.00000000
