10
Lattice="16.28999089631971 0.0 0.0 0.0 16.28999089631971 0.0 0.0 0.0 34.51877397758722" Properties=species:S:1:pos:R:3:initial_magmoms:R:1 pbc="T T T"
Si      -1.35799956       1.35594702       1.35800385       0.00000000
Si       1.35640314      -1.35959598       1.35758962       0.00000000
Si      -1.34156295      -1.39053069      -1.34758262       0.00000000
Si       1.37474568       1.35262386      -1.36573606       0.00000000
Si      -2.60988606      -0.08081469      -2.78476222       0.00000000
Si       2.71538010       2.70798444      -0.00110460       0.00000000
Si      -2.71634121       2.71059084      -0.00431485       0.00000000
Si      -0.00030951       2.71226871       2.71507568       0.00000000
Si       2.71423980      -0.00159642       2.71497213       0.00000000
Si       2.71239903      -2.71777473      -0.00307217       0.00000000
