10
Lattice="16.28999089631971 0.0 0.0 0.0 16.28999089631971 0.0 0.0 0.0 34.51877397758722" Properties=species:S:1:pos:R:3:initial_magmoms:R:1 pbc="T T T"
Si      -1.81822464      -0.81016686      -1.38010420       0.00000000
Si      -1.38474774       1.25309196       1.56046347       0.00000000
Si       1.30703565      -1.45254672       1.53390816       0.00000000
Si       1.15579179       1.90278603      -1.20001965       0.00000000
Si      -2.63801889       2.62918971       0.14147527       0.00000000
Si      -0.86053554       3.42976176      -1.33391805       0.00000000
Si      -3.61066221       0.84753612      -1.00299980       0.00000000
Si      -2.72898225      -2.72763018       0.07902042       0.00000000
Si       2.60824959      -2.87336052       0.12890698       0.00000000
Si      -0.04411332       2.60845254       2.92509493       0.00000000
