10
Lattice="16.28999089631971 0.0 0.0 0.0 16.28999089631971 0.0 0.0 0.0 34.51877397758722" Properties=species:S:1:pos:R:3:initial_magmoms:R:1 pbc="T T T"
Si      -1.16477410       1.50776982      -1.37001639       0.00000000
Si      -1.55873960      -1.02234411       1.47806021       0.00000000
Si       1.28712177       1.66760730       1.13238901       0.00000000
Si       1.55980008      -1.22831487      -1.36380300       0.00000000
Si      -2.52026180       0.13833468      -2.74710912       0.00000000
Si      -3.36038984       0.89744868       1.38945047       0.00000000
Si      -2.66601230      -2.63534733       0.07159198       0.00000000
Si       0.20250099      -2.57947263      -2.74220746       0.00000000
Si      -2.42328883       2.89543347       0.21512112       0.00000000
Si       1.24820496       1.27938402       3.44735736       0.00000000
