10
Lattice="16.28999089631971 0.0 0.0 0.0 16.28999089631971 0.0 0.0 0.0 34.51877397758722" Properties=species:S:1:pos:R:3:initial_magmoms:R:1 pbc="T T T"
Si      -1.35612621       1.35685926       1.35879778       0.00000000
Si      -1.35656604      -1.35767376      -1.35762414       0.00000000
Si       1.35844288       1.35721764      -1.35734799       0.00000000
Si       1.35777751      -1.35549090       1.36142121       0.00000000
Si      -2.71389771      -0.00078192      -2.71497213       0.00000000
Si      -2.71409319      -2.71477737      -0.00027615       0.00000000
Si       0.00065160      -2.71464705      -2.71507568       0.00000000
Si       0.00109143       2.71490769      -2.71524828       0.00000000
Si      -2.71568961       2.71450044      -0.00134623       0.00000000
Si       2.71571309       2.71480995      -0.00096653       0.00000000
