10
Lattice="16.28999089631971 0.0 0.0 0.0 16.28999089631971 0.0 0.0 0.0 34.51877397758722" Properties=species:S:1:pos:R:3:initial_magmoms:R:1 pbc="T T T"
Si       1.75260852      -0.05159043       1.53902040       0.00000000
Si       0.97761177       0.25868520      -2.11617462       0.00000000
Si      -1.58301333       1.42421841       1.02976464       0.00000000
Si      -0.33309792      -2.26103571      -0.77456720       0.00000000
Si      -1.16742285       0.74028276      -2.94697294       0.00000000
Si       1.49664375      -2.05772022      -2.30354263       0.00000000
Si       2.05718265      -2.37107466       1.51395975       0.00000000
Si      -0.80132139       1.38033315       3.26920587       0.00000000
Si       0.25785441      -3.74309991       0.95409945       0.00000000
Si      -2.52685593      -2.62065375      -1.44578514       0.00000000
