10
Lattice="16.28999089631971 0.0 0.0 0.0 16.28999089631971 0.0 0.0 0.0 34.51877397758722" Properties=species:S:1:pos:R:3:initial_magmoms:R:1 pbc="T T T"
Si       0.03891681       0.38822328      -2.31496835       0.00000000
Si       0.12478140      -2.44353258       0.68654428       0.00000000
Si       2.15751276       1.35769005       0.26620893       0.00000000
Si      -0.67225572       2.67441075       1.19904480       0.00000000
Si       0.71122140       3.05681850      -0.64270541       0.00000000
Si       2.09960181       0.75750129       2.47147656       0.00000000
Si       0.34762860       2.04079491       3.22184609       0.00000000
Si      -1.24820496      -1.27938402      -3.44735736       0.00000000
Si      -0.42577173      -2.43628353       3.05646655       0.00000000
Si       1.58793291      -1.34418564       3.48339499       0.00000000
