10
Lattice="16.28999089631971 0.0 0.0 0.0 16.28999089631971 0.0 0.0 0.0 34.51877397758722" Properties=species:S:1:pos:R:3:initial_magmoms:R:1 pbc="T T T"
Si      -0.74850921      -1.81439649      -1.37909970       0.00000000
Si       1.48564362       1.33011108      -1.37047000       0.00000000
Si       1.42719730      -1.25594271       1.50525066       0.00000000
Si      -1.29523419       1.42441389       1.50112567       0.00000000
Si      -2.52599256      -2.61496854       0.09629363       0.00000000
Si       1.26781812      -3.34137222      -1.24520130       0.00000000
Si       2.94477492      -2.38993848       0.05934471       0.00000000
Si      -2.74020606       2.72706722       0.16062285       0.00000000
Si       0.06791301      -2.63570571       2.87991328       0.00000000
Si       2.74225438       2.77781057       0.11203420       0.00000000
