10
Lattice="16.28999089631971 0.0 0.0 0.0 16.28999089631971 0.0 0.0 0.0 34.51877397758722" Properties=species:S:1:pos:R:3:initial_magmoms:R:1 pbc="T T T"
Si       1.07658981      -1.45205802      -1.59055696       0.00000000
Si       1.61717346       1.62059666       0.78602744       0.00000000
Si      -2.02017177       1.09432962      -0.76769796       0.00000000
Si      -0.35583876      -1.66309497       2.07019559       0.00000000
Si       2.76375555       0.29818845       2.38479987       0.00000000
Si      -2.67880905      -1.52156745       2.15573316       0.00000000
Si      -3.21764967      -1.95032025      -0.18305316       0.00000000
Si       0.44193141      -3.66265989      -0.94018837       0.00000000
Si       3.32577522      -1.69806960      -0.98333686       0.00000000
Si      -1.51777188       3.42395342      -1.08637546       0.00000000
