10
Lattice="16.28999089631971 0.0 0.0 0.0 16.28999089631971 0.0 0.0 0.0 34.51877397758722" Properties=species:S:1:pos:R:3:initial_magmoms:R:1 pbc="T T T"
Si      -2.32297029       0.14152752       0.08553757       0.00000000
Si       0.91018746      -2.14894422      -0.55223165       0.00000000
Si       0.24294906      -0.39912129       2.58718356       0.00000000
Si       0.35583876       1.66309497      -2.07019559       0.00000000
Si      -2.20775112       2.36791440       0.95527308       0.00000000
Si       3.02210355      -1.79067825       0.48436771       0.00000000
Si      -2.86181091      -0.28722528      -2.25324875       0.00000000
Si       3.11959431       1.96128342       0.31460428       0.00000000
Si       0.79777017      -1.99956492      -3.01038396       0.00000000
Si       1.43242857       0.21103695      -3.66075254       0.00000000
