10
Lattice="16.28999089631971 0.0 0.0 0.0 16.28999089631971 0.0 0.0 0.0 34.51877397758722" Properties=species:S:1:pos:R:3:initial_magmoms:R:1 pbc="T T T"
Si      -1.93639444      -0.01874979       1.43784581       0.00000000
Si       1.59592006      -1.15062786       1.48158113       0.00000000
Si      -0.79560574      -2.10678570      -1.31879050       0.00000000
Si      -0.13278193       3.51174933      -0.27853214       0.00000000
Si      -1.71631654      -2.32179741       2.02528664       0.00000000
Si      -2.55231934      -1.14295527      -2.57796704       0.00000000
Si       0.60542779      -3.83282523       0.24163155       0.00000000
Si       2.97859897       0.45325296       2.51369304       0.00000000
Si       0.45063043      -2.57699655       2.96533694       0.00000000
Si       2.98835668       2.40932358      -1.17067035       0.00000000
