10
Lattice="16.28999089631971 0.0 0.0 0.0 16.28999089631971 0.0 0.0 0.0 34.51877397758722" Properties=species:S:1:pos:R:3:initial_magmoms:R:1 pbc="T T T"
Si      -0.65015019       2.01468204       0.97691637       0.00000000
Si      -1.38267891      -1.60388082      -1.03211192       0.00000000
Si       1.84878468      -1.25604045       0.75123250       0.00000000
Si       1.02964203       1.32245478      -1.66156211       0.00000000
Si       2.26994634      -2.06252577      -1.40001322       0.00000000
Si       1.52650332       2.91698514       1.47585101       0.00000000
Si       0.25624170      -3.15462366      -1.82694165       0.00000000
Si       2.78161524       0.03916116      -2.41193164       0.00000000
Si      -1.42428357       1.51824429       3.07893828       0.00000000
Si       1.66645071       3.43062513      -0.80159542       0.00000000
