10
Lattice="16.28999089631971 0.0 0.0 0.0 16.28999089631971 0.0 0.0 0.0 34.51877397758722" Properties=species:S:1:pos:R:3:initial_magmoms:R:1 pbc="T T T"
Si      -1.35678141       1.35668007      -1.35755510       0.00000000
Si       1.35777020      -1.35795069      -1.35776221       0.00000000
Si       1.35859122       1.35821133       1.35731347       0.00000000
Si      -1.35832896      -1.35870329       1.35745155       0.00000000
Si      -2.71440630       2.71410948      -0.00058682       0.00000000
Si       2.71505789       2.71435383      -0.00027615       0.00000000
Si       0.00123748       2.71437012      -2.71552443       0.00000000
Si      -2.71580724      -0.00009774      -2.71479953       0.00000000
Si       0.00139081      -2.71572834      -2.71490309       0.00000000
Si      -2.71474839      -2.71590019      -0.00041423       0.00000000
