10
Lattice="16.28999089631971 0.0 0.0 0.0 16.28999089631971 0.0 0.0 0.0 34.51877397758722" Properties=species:S:1:pos:R:3:initial_magmoms:R:1 pbc="T T T"
Si       1.25851474      -1.38766365      -1.58513751       0.00000000
Si       0.92772674       1.92718845       1.27460644       0.00000000
Si      -0.93710100      -1.99798479       1.17432935       0.00000000
Si      -1.45829955       1.29570660      -1.56760196       0.00000000
Si      -1.05179889       3.28637718       1.00197701       0.00000000
Si       2.42328883      -2.89543347      -0.21512112       0.00000000
Si       2.73828856       2.76428268      -0.09137125       0.00000000
Si      -2.77093146      -2.74955652      -0.20480000       0.00000000
Si       2.62070734      -0.04676859      -2.95798443       0.00000000
Si      -2.99884485       2.58150888      -0.21084079       0.00000000
