10
Lattice="16.28999089631971 0.0 0.0 0.0 16.28999089631971 0.0 0.0 0.0 34.51877397758722" Properties=species:S:1:pos:R:3:initial_magmoms:R:1 pbc="T T T"
Si      -0.80078708       1.96380837      -1.13283776       0.00000000
Si       1.88516351       1.23575940       1.06203971       0.00000000
Si      -1.22695044      -1.21497336       1.81213309       0.00000000
Si      -0.17732317      -1.44857196      -2.23667973       0.00000000
Si       1.89418817      -2.31739911       0.91999488       0.00000000
Si      -2.15684880      -0.08938323      -2.50930916       0.00000000
Si       3.73621250       0.33021459      -0.21498304       0.00000000
Si       1.25063543       3.06217791      -1.81945107       0.00000000
Si       2.78476247       1.15271298      -2.29874452       0.00000000
Si      -2.22264411       3.07258722       0.47594512       0.00000000
