10
Lattice="16.28999089631971 0.0 0.0 0.0 16.28999089631971 0.0 0.0 0.0 34.51877397758722" Properties=species:S:1:pos:R:3:initial_magmoms:R:1 pbc="T T T"
Si      -0.24476377       1.90055430      -1.34585323       0.00000000
Si      -2.05183694      -0.75292380       0.85188930       0.00000000
Si       1.25388365       0.52742133       1.91758800       0.00000000
Si       1.05135008      -1.87067844      -0.99918099       0.00000000
Si      -0.01211162      -0.94444533       3.31169851       0.00000000
Si       3.37840916      -0.08640216       1.08202609       0.00000000
Si      -2.22395708       0.75181608       2.71769911       0.00000000
Si      -1.74726281      -3.07240803       0.82682866       0.00000000
Si      -0.70040225      -3.38664213      -1.27681564       0.00000000
Si      -1.12016297       1.08284517      -3.36844740       0.00000000
