10
Lattice="16.28999089631971 0.0 0.0 0.0 16.28999089631971 0.0 0.0 0.0 34.51877397758722" Properties=species:S:1:pos:R:3:initial_magmoms:R:1 pbc="T T T"
Si      -1.80309123       0.49936995      -1.50522650       0.00000000
Si       2.23096437      -0.79794936      -0.39617219       0.00000000
Si      -0.94737753      -1.40082597       1.70992294       0.00000000
Si       0.52396785       2.28364623       0.57598058       0.00000000
Si      -1.60055766       2.89746972       1.41154249       0.00000000
Si      -2.85444131       2.37004839      -0.50604551       0.00000000
Si       2.52405405       2.08937169       1.86608596       0.00000000
Si       3.01032684       0.56148372      -2.25628640       0.00000000
Si       3.50130744      -0.04435767       1.48610309       0.00000000
Si       1.14769566       1.89811080      -3.10831378       0.00000000
