10
Lattice="16.28999089631971 0.0 0.0 0.0 16.28999089631971 0.0 0.0 0.0 34.51877397758722" Properties=species:S:1:pos:R:3:initial_magmoms:R:1 pbc="T T T"
Si      -2.28081177       0.43287417      -0.12461284       0.00000000
Si      -0.43978113      -1.95387147      -1.22721214       0.00000000
Si       1.84063968       1.29929040      -0.81968326       0.00000000
Si       0.53414910      -2.42602083       1.36142121       0.00000000
Si      -1.13414238      -1.36344042       2.90365185       0.00000000
Si      -2.89580325      -1.47251826       1.18437432       0.00000000
Si       1.56375855      -2.97114939      -0.83048765       0.00000000
Si       0.93664242       2.22223293       2.70758511       0.00000000
Si      -1.54324944      -3.28989582       0.39758746       0.00000000
Si       1.67503554       3.31455888       0.39634478       0.00000000
