10
Lattice="16.28999089631971 0.0 0.0 0.0 16.28999089631971 0.0 0.0 0.0 34.51877397758722" Properties=species:S:1:pos:R:3:initial_magmoms:R:1 pbc="T T T"
Si       1.35651717       1.34965323       1.37422078       0.00000000
Si      -1.35875705      -1.36485765       1.37573960       0.00000000
Si      -1.39746534       1.33003682      -1.39238111       0.00000000
Si       1.52187696      -1.19330766      -1.44953043       0.00000000
Si      -2.71252243      -2.70371646       0.00083535       0.00000000
Si      -2.71714661       2.70810566       0.01379371       0.00000000
Si       2.70910845       2.72213135      -0.00335177       0.00000000
Si       2.73378780      -2.70519885      -0.00954790       0.00000000
Si       0.00000000       2.70939257       2.73436479       0.00000000
Si      -2.71443271      -0.00587965       2.73439931       0.00000000
