10
Lattice="16.28999089631971 0.0 0.0 0.0 16.28999089631971 0.0 0.0 0.0 34.51877397758722" Properties=species:S:1:pos:R:3:initial_magmoms:R:1 pbc="T T T"
Si       2.12863059       0.65202354       0.80028370       0.00000000
Si      -0.26189433      -2.34457083       0.61025775       0.00000000
Si      -1.20914154       1.92108363       0.99334731       0.00000000
Si      -0.89642241      -0.51815232      -2.27123304       0.00000000
Si       2.28973869       1.98961566      -1.15990049       0.00000000
Si      -3.13981605       0.83155563       1.70964679       0.00000000
Si       1.58915466      -3.25011564      -0.66676501       0.00000000
Si      -2.94784492      -1.61652186      -1.58461972       0.00000000
Si       0.63770463      -2.42761725      -2.75052649       0.00000000
Si       0.47434851       2.70461797      -2.64624521       0.00000000
