10
Lattice="10.86 0.0 0.0 0.0 10.86 0.0 0.0 0.0 10.86" Properties=species:S:1:pos:R:3:initial_magmoms:R:1 pbc="T T T"
Si       1.03644582      -1.41570960      -1.34463090       0.00000000
Si       1.15175730       1.92317568       0.87838938       0.00000000
Si      -1.67855418       1.29929040      -1.34463090       0.00000000
Si      -1.67855418      -1.41570960       1.37036910       0.00000000
Si       2.15161578       0.12373884       2.60655204       0.00000000
Si       2.24553306      -0.11502912      -2.70056706       0.00000000
Si       2.39394582      -2.77320960       0.01286910       0.00000000
Si      -0.32105418      -2.77320960      -2.70213090       0.00000000
Si      -0.33258750       2.80476876      -2.67645786       0.00000000
Si      -0.32105418      -2.77320960       2.72786910       0.00000000
