10
Lattice="10.86 0.0 0.0 0.0 10.86 0.0 0.0 0.0 10.86" Properties=species:S:1:pos:R:3:initial_magmoms:R:1 pbc="T T T"
Si      -1.35735882       1.29253548      -1.10760054       0.00000000
Si       1.35764118      -1.42246452      -1.10760054       0.00000000
Si       1.26142158       1.35197226       1.34946360       0.00000000
Si      -1.35735882      -1.42246452       1.60739946       0.00000000
Si       0.16135788       2.57700198      -2.32316034       0.00000000
Si       2.51517600      -0.04079016      -2.43176034       0.00000000
Si      -2.71485882      -0.06496452      -2.46510054       0.00000000
Si       0.00014118      -2.77996452      -2.46510054       0.00000000
Si      -2.71485882       2.65003548       0.24989946       0.00000000
Si       2.56630488       0.03933492       2.86446618       0.00000000
