10
Lattice="10.86 0.0 0.0 0.0 10.86 0.0 0.0 0.0 10.86" Properties=species:S:1:pos:R:3:initial_magmoms:R:1 pbc="T T T"
Si      -1.27772244      -1.19179812      -1.56723918       0.00000000
Si      -1.15423338       1.57484118       1.32536526       0.00000000
Si       1.32375798       1.57459140      -1.51135362       0.00000000
Si       0.11356302      -2.55703044       2.43992706       0.00000000
Si      -2.63505954      -2.50807356      -0.09135432       0.00000000
Si      -2.63505954       0.20692644       2.62364568       0.00000000
Si       0.07994046      -2.50807356      -2.80635432       0.00000000
Si      -2.63505954       0.20692644      -2.80635432       0.00000000
Si       0.07994046       2.92192644       2.62364568       0.00000000
Si      -2.63505954       2.92192644      -0.09135432       0.00000000
