10
Lattice="16.290000149 0.0 0.0 0.0 16.290000149 0.0 0.0 0.0 29.1751946751" Properties=species:S:1:pos:R:3:initial_magmoms:R:1 pbc="T T T"
Si      -0.69064714       2.04888128       0.76844545       0.00000000
Si       2.05612382      -0.61073002       0.89611610       0.00000000
Si      -1.24165639      -1.78848889       0.84129591       0.00000000
Si      -0.64389484      -0.67855996      -2.14618567       0.00000000
Si      -0.69340015      -2.82544514      -1.16887500       0.00000000
H        0.67166929       2.30639361      -2.13757899       0.00000000
Si      -1.29163411       1.53708206       2.95369671       0.00000000
Si      -3.52994529       0.77554084      -0.77465977       0.00000000
Si       1.53412705      -1.86317854       2.82550090       0.00000000
Si       1.07171911       3.53718457       0.44337543       0.00000000
