10
Lattice="16.290000149 0.0 0.0 0.0 16.290000149 0.0 0.0 0.0 29.1751946751" Properties=species:S:1:pos:R:3:initial_magmoms:R:1 pbc="T T T"
Si      -1.35404110      -1.31528719       1.40082363       0.00000000
Si       1.34429968       1.36811566       1.36280835       0.00000000
Si      -1.37200897       1.35576784      -1.35913811       0.00000000
Si       1.42773706      -1.37448505      -1.29362521       0.00000000
Si      -2.67499721      -2.65631258       0.00875839       0.00000000
Si      -2.54332514      -0.11235213      -2.80623944       0.00000000
Si       2.68610699      -0.00431685      -2.71923901       0.00000000
Si       2.70888041       2.72034857       0.01120619       0.00000000
Si      -0.00392589      -2.68496669       2.75712008       0.00000000
Si       2.79873606      -2.63976194       0.12727970       0.00000000
