10
Lattice="16.290000149 0.0 0.0 0.0 16.290000149 0.0 0.0 0.0 29.1751946751" Properties=species:S:1:pos:R:3:initial_magmoms:R:1 pbc="T T T"
Si       1.55983267       0.76209508       1.59343243       0.00000000
Si      -0.91810441      -1.82430083       1.18194549       0.00000000
Si       1.14020227       0.11634318      -2.06411585       0.00000000
Si      -1.92217115       1.50601051      -0.30123388       0.00000000
Si      -1.94235446      -0.32780367       2.65164592       0.00000000
H       -2.81763246       0.53716275       1.77105102       0.00000000
H        1.85689712      -2.85690765      -0.12545334       0.00000000
Si      -0.04395042       0.97601536       3.27891260       0.00000000
Si       2.31708962       2.68856027       0.52734164       0.00000000
Si       2.67584429       1.95421358      -1.66368630       0.00000000
