10
Lattice="16.290000149 0.0 0.0 0.0 16.290000149 0.0 0.0 0.0 29.1751946751" Properties=species:S:1:pos:R:3:initial_magmoms:R:1 pbc="T T T"
Si      -2.30664773      -0.08969274       0.34832265       0.00000000
H       -0.91041553       1.56628351      -1.49969253       0.00000000
Si       0.96674635      -0.39892418      -2.15295432       0.00000000
Si       1.01799469       2.15448284       0.39249389       0.00000000
Si       0.05546745      -2.06835761       1.28825990       0.00000000
H       -2.91951012       1.22238532      -0.07188768       0.00000000
Si       2.83929816       1.27334044       1.54310522       0.00000000
Si       2.88605046      -1.45410080      -1.37152590       0.00000000
Si       3.52994529      -0.77554084       0.77465977       0.00000000
Si      -3.16845390      -1.74816137      -1.03930796       0.00000000
