10
Lattice="16.290000149 0.0 0.0 0.0 16.290000149 0.0 0.0 0.0 29.1751946751" Properties=species:S:1:pos:R:3:initial_magmoms:R:1 pbc="T T T"
Si       1.35668008       1.36694278       1.33704082       0.00000000
Si      -1.32742650       1.36163224      -1.37467682       0.00000000
Si       1.38409615      -1.35432455      -1.33412330       0.00000000
Si      -1.34576741      -1.35566684       1.37598971       0.00000000
Si       2.71103069      -0.00047241       2.67416917       0.00000000
Si      -2.69821046      -0.00685809      -2.69925984       0.00000000
Si       0.02720430      -2.71625978      -2.68432214       0.00000000
Si      -2.69316056       2.71174745      -0.02485727       0.00000000
Si       0.05927931      -2.69501762       2.70961703       0.00000000
Si      -0.02122587       2.71168229       2.69470851       0.00000000
