10
Lattice="16.290000149 0.0 0.0 0.0 16.290000149 0.0 0.0 0.0 29.1751946751" Properties=species:S:1:pos:R:3:initial_magmoms:R:1 pbc="T T T"
Si      -1.37471311      -1.40305771      -1.31048848       0.00000000
Si      -1.34772058       1.27775503       1.45937241       0.00000000
Si       1.33848415      -1.33709950       1.42261167       0.00000000
Si       1.34029234       1.41631777      -1.36317013       0.00000000
Si       2.67297725      -0.02161683      -2.67765269       0.00000000
Si       0.05944221      -2.77281867      -2.59031674       0.00000000
Si      -2.68154579      -2.69671178       0.15842131       0.00000000
Si      -2.78071932       2.59703327       0.17545962       0.00000000
Si      -2.72137484      -0.04150692      -2.69026512       0.00000000
Si       2.68760567       2.74470213       0.02902932       0.00000000
