10
Lattice="16.290000149 0.0 0.0 0.0 16.290000149 0.0 0.0 0.0 29.1751946751" Properties=species:S:1:pos:R:3:initial_magmoms:R:1 pbc="T T T"
H       -0.15384276       0.79729777       1.27495601       0.00000000
Si       1.06715791       1.16994781      -1.70817847       0.00000000
Si      -2.22681044       0.02744865      -0.78099079       0.00000000
Si       0.87063535      -2.07246269       0.79648281       0.00000000
H       -1.42148170      -1.92300194       1.72369968       0.00000000
H       -1.57421674       2.81486316       0.84657662       0.00000000
Si      -2.65005722      -1.91451485       0.83654036       0.00000000
Si       0.71197075      -1.63422910       3.15217556       0.00000000
Si       1.94877272      -0.60932746      -2.99098261       0.00000000
Si      -3.50040501       0.37260117       1.13509012       0.00000000
