10
Lattice="16.290000149 0.0 0.0 0.0 16.290000149 0.0 0.0 0.0 29.1751946751" Properties=species:S:1:pos:R:3:initial_magmoms:R:1 pbc="T T T"
Si       1.74101006       0.32156297      -1.49835047       0.00000000
Si      -1.91930411       1.05517661      -0.78142841       0.00000000
Si       0.64389484       0.67855996       2.14618567       0.00000000
Si      -0.04950531      -2.14688518       0.97731067       0.00000000
Si       1.85561021      -1.98356164      -1.73040997       0.00000000
Si      -0.59776156      -1.10992893       2.98748158       0.00000000
H        1.31556412       2.98495356       0.00860668       0.00000000
Si      -0.76323538       2.50011429      -2.28333826       0.00000000
Si      -2.88605046       1.45410080       1.37152590       0.00000000
Si       2.14272146      -2.87060102       0.50954477       0.00000000
