10
Lattice="16.290000149 0.0 0.0 0.0 16.290000149 0.0 0.0 0.0 29.1751946751" Properties=species:S:1:pos:R:3:initial_magmoms:R:1 pbc="T T T"
Si       1.34211519       1.33348312      -1.38369196       0.00000000
Si      -1.33244219      -1.36216981      -1.37438799       0.00000000
Si      -1.35637220       1.38087073       1.33514443       0.00000000
Si       1.36676196      -1.35169534       1.36528241       0.00000000
Si      -2.62523289      -2.67463883       0.09972082       0.00000000
Si       2.70664706       2.69488730      -0.01768017       0.00000000
Si      -2.69624100       0.02854008       2.72172474       0.00000000
Si       0.00864836       2.71213841       2.71165929       0.00000000
Si      -0.03968733       2.67499721      -2.76220240       0.00000000
Si       2.72797067       0.00019548       2.71941990       0.00000000
