10
Lattice="16.290000149 0.0 0.0 0.0 16.290000149 0.0 0.0 0.0 29.1751946751" Properties=species:S:1:pos:R:3:initial_magmoms:R:1 pbc="T T T"
H       -0.88668100       0.75714292       0.97894448       0.00000000
Si       1.15308766       1.63188334      -1.18953104       0.00000000
Si       1.39533821      -1.17547012       1.46109375       0.00000000
Si      -1.59415570      -1.13282290      -1.33890803       0.00000000
Si      -0.62398846       2.75581191      -2.22565890       0.00000000
Si      -1.99247879       2.44561772       1.76019989       0.00000000
Si       2.60926218       0.41428728      -2.52630928       0.00000000
Si      -0.06488307      -2.35372583       2.87847139       0.00000000
Si      -2.22777155       2.96973219      -0.54017873       0.00000000
Si       2.85416115      -2.45837279       0.11652573       0.00000000
