10
Lattice="16.290000149 0.0 0.0 0.0 16.290000149 0.0 0.0 0.0 29.1751946751" Properties=species:S:1:pos:R:3:initial_magmoms:R:1 pbc="T T T"
Si       1.33265233       1.34265439      -1.32397033       0.00000000
Si      -1.32787936       1.42198669       1.28402949       0.00000000
Si       1.43715268      -1.34609158       1.25861790       0.00000000
Si      -1.35769006      -1.27869933      -1.41672995       0.00000000
Si       0.05779692      -2.69040755       2.59233275       0.00000000
Si      -2.67551849       0.04618378       2.61911558       0.00000000
Si       0.06056622       2.77071726       2.60709540       0.00000000
Si      -2.70787043      -2.67437819      -0.10742307       0.00000000
Si       2.78585067       0.04156882       2.59644645       0.00000000
Si      -0.03732039      -2.76907197      -2.62376610       0.00000000
