10
Lattice="16.290000149 0.0 0.0 0.0 16.290000149 0.0 0.0 0.0 29.1751946751" Properties=species:S:1:pos:R:3:initial_magmoms:R:1 pbc="T T T"
H        0.71873110       0.08550621       1.32411621       0.00000000
H       -1.39341403       0.84787822       1.63979182       0.00000000
Si       1.61205841      -0.78778441      -1.51964837       0.00000000
Si      -1.86986396      -1.46873899      -0.15961749       0.00000000
Si      -0.34168275       1.95304070      -1.36682870       0.00000000
H        1.87392017       1.70924456       0.20040441       0.00000000
H        2.52786593       1.29125944       0.24568431       0.00000000
Si      -0.79200352       0.94196926       3.03906333       0.00000000
Si       0.12689910      -1.80160886      -2.99104096       0.00000000
Si      -0.98824915      -3.24801426      -1.44242162       0.00000000
