10
Lattice="16.290000149 0.0 0.0 0.0 16.290000149 0.0 0.0 0.0 29.1751946751" Properties=species:S:1:pos:R:3:initial_magmoms:R:1 pbc="T T T"
Si       0.85522501      -1.87603787      -1.11606790       0.00000000
Si       1.50112351       1.24331797       1.37138003       0.00000000
Si      -1.40116807       1.32809113      -1.41639735       0.00000000
Si      -1.29868768      -1.37743354       1.48498823       0.00000000
H        1.40002777      -1.62000793      -2.49868037       0.00000000
H        2.71036280       0.12290805      -2.06408667       0.00000000
Si       0.01987380       2.54118171       2.71163012       0.00000000
H       -0.20294082      -0.81298504      -3.67286526       0.00000000
Si       2.55143756      -2.80355790       0.19287721       0.00000000
Si      -2.65404827      -2.72797229       0.14392124       0.00000000
