10
Lattice="16.290000149 0.0 0.0 0.0 16.290000149 0.0 0.0 0.0 29.1751946751" Properties=species:S:1:pos:R:3:initial_magmoms:R:1 pbc="T T T"
H        0.01773981      -1.14222223      -0.98043242       0.00000000
Si       2.20643817       0.22525812       0.63663192       0.00000000
Si      -1.61399692      -0.65451592       1.56965465       0.00000000
Si      -0.47726442       2.11447460      -0.93984972       0.00000000
H        0.53281332      -1.93818422       1.43646989       0.00000000
H       -1.91922266       2.41070825      -0.50586870       0.00000000
H        1.05615076       0.75365686      -3.06181998       0.00000000
Si      -3.13999527      -1.35273790      -0.08466641       0.00000000
Si       3.05678595      -2.06185790       0.33808216       0.00000000
Si       3.48003273      -0.11989440      -1.27944899       0.00000000
