10
Lattice="16.290000149 0.0 0.0 0.0 16.290000149 0.0 0.0 0.0 29.1751946751" Properties=species:S:1:pos:R:3:initial_magmoms:R:1 pbc="T T T"
Si       1.35249355       1.01902096      -1.62931792       0.00000000
Si       1.43233084      -1.62681129       0.92715851       0.00000000
Si      -1.83067022      -1.18766319      -1.00698184       0.00000000
Si      -0.11020185       1.73565065       1.80369806       0.00000000
H       -2.25611615       1.47572740       0.49997531       0.00000000
Si       2.78084964       2.28703457      -0.22228581       0.00000000
Si       0.63355069       0.41883219       3.59849769       0.00000000
Si       2.62409096      -0.48051102       2.61966991       0.00000000
Si      -2.89522173       2.31951683      -0.58076143       0.00000000
Si       0.14349861      -3.06814008       2.20710348       0.00000000
