10
Lattice="16.290000149 0.0 0.0 0.0 16.290000149 0.0 0.0 0.0 29.1751946751" Properties=species:S:1:pos:R:3:initial_magmoms:R:1 pbc="T T T"
Si      -1.19176012      -1.14630027      -1.69251139       0.00000000
Si       0.58026610      -1.76513066       1.48093288       0.00000000
Si      -1.99054028       0.89934322       0.97882778       0.00000000
Si       1.44422401       1.41563848      -1.33849958       0.00000000
H        0.58829707       2.19431678       2.14472691       0.00000000
Si      -2.48059235      -2.58762906      -0.41256643       0.00000000
Si      -2.73429281       2.21616167      -0.81597184       0.00000000
Si      -3.49575258      -0.96088521       0.91400050       0.00000000
Si      -2.62409096       0.48051102      -2.61966991       0.00000000
H       -0.93924883      -0.02021589       3.65077964       0.00000000
