10
Lattice="16.290000149 0.0 0.0 0.0 16.290000149 0.0 0.0 0.0 29.1751946751" Properties=species:S:1:pos:R:3:initial_magmoms:R:1 pbc="T T T"
Si       1.28883223       1.44132879      -1.27994497       0.00000000
Si      -1.01516023       1.62674385       1.32656693       0.00000000
Si       1.52521642      -1.01537200       1.49306976       0.00000000
Si      -1.57245742      -1.31168710      -1.20619007       0.00000000
Si       2.48059235       2.58762906       0.41256643       0.00000000
Si      -1.53715699       0.37429533       3.25595173       0.00000000
Si       2.59444316       0.02406033      -2.61319301       0.00000000
Si       3.06085845       0.82249840       1.89349931       0.00000000
H        0.67365667      -2.26852913      -2.83775449       0.00000000
Si       0.38501415      -1.13171518       3.55718561       0.00000000
