10
Lattice="16.290000149 0.0 0.0 0.0 16.290000149 0.0 0.0 0.0 29.1751946751" Properties=species:S:1:pos:R:3:initial_magmoms:R:1 pbc="T T T"
Si      -1.44705700       1.20671434       1.33992158       0.00000000
Si      -1.35536059      -1.35053875      -1.34106700       0.00000000
Si       1.28098045      -1.49266900       1.34080296       0.00000000
Si       1.29868768       1.37743354      -1.48498823       0.00000000
Si       2.15391269      -0.49860432      -2.60105613       0.00000000
Si       0.36655758      -2.10771425      -2.71863217       0.00000000
Si      -0.01943397       2.55375074       2.63297963       0.00000000
Si      -2.79270224       2.45863343      -0.12921694       0.00000000
Si       2.69506649      -0.19767915       2.68279919       0.00000000
Si      -2.78585392      -0.26140563       2.58339347       0.00000000
