10
Lattice="16.290000149 0.0 0.0 0.0 16.290000149 0.0 0.0 0.0 29.1751946751" Properties=species:S:1:pos:R:3:initial_magmoms:R:1 pbc="T T T"
Si      -0.63910558       0.84378943      -1.08073674       0.00000000
Si       2.14591430       0.25992324       1.30372275       0.00000000
Si       2.25611615      -1.47572740      -0.49997531       0.00000000
Si       0.40004982       1.23079096       2.58095442       0.00000000
Si      -2.06847164       2.07003548       0.20679378       0.00000000
Si       0.42544593      -2.66339059      -1.50695716       0.00000000
Si      -2.07879950      -0.48483927      -2.29194494       0.00000000
Si      -0.67166929      -2.30639361       2.13757899       0.00000000
Si      -1.36231642      -0.25751232       2.90602444       0.00000000
Si       0.86159440       2.20578005      -2.24188031       0.00000000
