10
Lattice="16.290000149 0.0 0.0 0.0 16.290000149 0.0 0.0 0.0 29.1751946751" Properties=species:S:1:pos:R:3:initial_magmoms:R:1 pbc="T T T"
Si       0.27061926      -0.82179793      -2.15190401       0.00000000
Si      -2.26811211       0.46672479      -0.15634987       0.00000000
Si       1.32049348       1.96159132       0.10333854       0.00000000
Si       1.02535125      -1.53047809       1.49131925       0.00000000
Si      -2.62686678       1.20107148       2.03467808       0.00000000
Si       2.53843163      -0.19046268       2.69082820       0.00000000
Si       3.38217218       1.25842206       0.97036697       0.00000000
Si       1.92100804      -2.47573793      -2.05057856       0.00000000
Si       1.19134635       0.90907975      -3.43336608       0.00000000
Si       2.37535244      -2.89487964       0.16481067       0.00000000
