10
Lattice="16.290000149 0.0 0.0 0.0 16.290000149 0.0 0.0 0.0 29.1751946751" Properties=species:S:1:pos:R:3:initial_magmoms:R:1 pbc="T T T"
Si       0.87527800      -0.86496643       0.88059490       0.00000000
H       -1.87844879      -0.44531973      -1.23524857       0.00000000
Si       0.89546131       0.96884776      -2.07228490       0.00000000
Si      -0.98818399      -0.37509354      -2.46416612       0.00000000
Si      -0.69662557       2.51253867      -0.98725941       0.00000000
Si      -1.46310265       2.16066327       1.26500727       0.00000000
Si       1.89952805      -2.36146358      -0.58910553       0.00000000
Si      -0.52662312      -2.09236907       2.30679512       0.00000000
Si       2.77368204       0.43885260       1.50786159       0.00000000
Si       2.81763246      -0.53716275      -1.77105102       0.00000000
