10
Lattice="16.290000149 0.0 0.0 0.0 16.290000149 0.0 0.0 0.0 29.1751946751" Properties=species:S:1:pos:R:3:initial_magmoms:R:1 pbc="T T T"
Si      -1.41408604      -1.29498985      -1.34199623       0.00000000
Si      -1.38513871       1.35544204       1.32177052       0.00000000
Si       1.32051628       1.40279707      -1.34533124       0.00000000
Si       1.36946773      -1.41397201       1.30579711       0.00000000
Si       2.62348823       2.58119939       0.21370247       0.00000000
Si       2.66580965       0.05097141      -2.68983041       0.00000000
Si      -0.10057446      -2.71539641      -2.64204144       0.00000000
Si      -2.73458604      -0.04383639       2.64511651       0.00000000
Si      -2.69506649       0.19767915      -2.68279919       0.00000000
Si      -0.04706181       2.67589316       2.73004550       0.00000000
