10
Lattice="16.290000149 0.0 0.0 0.0 16.290000149 0.0 0.0 0.0 29.1751946751" Properties=species:S:1:pos:R:3:initial_magmoms:R:1 pbc="T T T"
Si       1.34459290       1.29450115      -1.36957116       0.00000000
Si      -1.52982649       1.26273565       1.21039130       0.00000000
Si       1.02975607      -0.82776007       1.95467969       0.00000000
Si      -1.41613858      -1.39220857      -1.29642895       0.00000000
Si      -0.80016481      -2.12208203       2.59317883       0.00000000
Si      -2.45055359      -0.46814202       2.49185338       0.00000000
Si       2.60537375       2.61197283       0.09674495       0.00000000
Si      -0.08117307       2.66169806      -2.66407455       0.00000000
Si       2.70855461      -0.07297920      -2.71478104       0.00000000
Si      -0.07654671      -2.72005535      -2.70503652       0.00000000
