10
Lattice="16.290000149 0.0 0.0 0.0 16.290000149 0.0 0.0 0.0 29.1751946751" Properties=species:S:1:pos:R:3:initial_magmoms:R:1 pbc="T T T"
Si      -0.98336215       1.85306897      -0.90276805       0.00000000
Si      -1.76236625      -1.48830328       0.32507002       0.00000000
Si       0.39534201       0.64417177       2.22431684       0.00000000
Si       1.74586448      -0.97086772      -1.27723167       0.00000000
H       -0.40004982      -1.23079096      -2.58095442       0.00000000
Si       2.48961701      -2.28768617       0.51756795       0.00000000
Si       1.91071928      -1.20322828       2.57923309       0.00000000
Si      -2.46852146       0.83924452      -2.37416064       0.00000000
Si      -1.07171911      -3.53718457      -0.44337543       0.00000000
Si      -3.58366971      -0.60716089      -0.82554131       0.00000000
