10
Lattice="16.290000149 0.0 0.0 0.0 16.290000149 0.0 0.0 0.0 29.1751946751" Properties=species:S:1:pos:R:3:initial_magmoms:R:1 pbc="T T T"
Si      -1.55644110       1.08374113      -1.37260538       0.00000000
Si       1.38883654      -1.46616517      -1.22529983       0.00000000
Si      -0.84867643      -1.48006054       1.64580191       0.00000000
Si       0.42210648       1.82679320       1.47232620       0.00000000
H        0.35057709      -1.12143619       2.53135659       0.00000000
Si      -1.88785300       2.00481032       2.06843378       0.00000000
Si      -0.24988860       2.57720834      -2.64718211       0.00000000
Si      -3.04898304       2.15914178       0.04743887       0.00000000
Si       2.70207119      -0.10306683      -2.61050889       0.00000000
Si      -0.11269422      -2.81191467      -2.52263321       0.00000000
