10
Lattice="16.290000149 0.0 0.0 0.0 16.290000149 0.0 0.0 0.0 29.1751946751" Properties=species:S:1:pos:R:3:initial_magmoms:R:1 pbc="T T T"
Si      -1.49532427       1.26649864       1.27486848       0.00000000
Si       1.29418301       1.36008469      -1.44501822       0.00000000
Si      -1.42835608      -1.26801361      -1.40703211       0.00000000
Si       1.28746534      -1.35190711       1.50345613       0.00000000
H        1.46994934       1.32265027       2.90529506       0.00000000
Si      -2.89105149      -0.55138393       2.02598387       0.00000000
Si      -2.78084964      -2.28703457       0.22228581       0.00000000
Si       2.50379094      -2.63453611      -0.10587678       0.00000000
Si       2.60450387       0.34033068       2.65255035       0.00000000
Si       2.65510550       2.76407094      -0.12650364       0.00000000
