10
Lattice="16.290000149 0.0 0.0 0.0 16.290000149 0.0 0.0 0.0 29.1751946751" Properties=species:S:1:pos:R:3:initial_magmoms:R:1 pbc="T T T"
Si      -0.27061926       0.82179793       2.15190401       0.00000000
Si       1.65038879      -1.65394001       0.10132545       0.00000000
Si      -1.77271040      -1.00548397      -1.15157411       0.00000000
Si       0.92072710       1.73087768      -1.28146208       0.00000000
Si      -2.53873136       1.28852272       1.99555414       0.00000000
Si      -0.42975464      -2.30738078      -2.57156001       0.00000000
Si       2.45055359       0.46814202      -2.49185338       0.00000000
Si       3.48030966      -0.35961804      -0.53717368       0.00000000
Si       1.04987422       2.78338925       2.25524255       0.00000000
Si       2.10473318      -2.07308171       2.31671468       0.00000000
