10
Lattice="16.290000149 0.0 0.0 0.0 16.290000149 0.0 0.0 0.0 29.1751946751" Properties=species:S:1:pos:R:3:initial_magmoms:R:1 pbc="T T T"
Si       1.41636664      -1.24371382      -1.43480690       0.00000000
Si      -1.27385521      -1.49060506       1.33736175       0.00000000
Si       1.48993228       1.37106415       1.29558287       0.00000000
Si      -1.96271696       1.26993257      -0.99869609       0.00000000
H        0.88547554       2.44479834      -1.41251705       0.00000000
Si      -0.34309998       2.45328543      -2.29967637       0.00000000
Si      -2.75017557       1.87310078       1.17541024       0.00000000
Si      -2.44488516       0.04051193       2.68315513       0.00000000
Si      -0.09671373      -2.58372923      -2.63431585       0.00000000
Si       2.81753472      -2.57180495      -0.01840955       0.00000000
