10
Lattice="16.290000149 0.0 0.0 0.0 16.290000149 0.0 0.0 0.0 29.1751946751" Properties=species:S:1:pos:R:3:initial_magmoms:R:1 pbc="T T T"
H       -1.16076025       1.01056808      -0.02118119       0.00000000
Si      -0.75725695      -1.92646519       1.06609079       0.00000000
Si       0.35875467      -0.73434669      -2.19102794       0.00000000
Si       1.78621481       1.12211223       1.09226094       0.00000000
H        0.88185916       2.42913876       0.88966839       0.00000000
Si       2.62686678      -1.20107148      -2.03467808       0.00000000
H        0.36678564       3.22510075      -1.52723392       0.00000000
Si      -2.31708962      -2.68856027      -0.52734164       0.00000000
Si      -2.80912908       0.57652102       2.48575576       0.00000000
Si      -0.22151142       1.03078397      -3.67196083       0.00000000
