10
Lattice="16.290000149 0.0 0.0 0.0 16.290000149 0.0 0.0 0.0 29.1751946751" Properties=species:S:1:pos:R:3:initial_magmoms:R:1 pbc="T T T"
Si       1.32036967      -1.49037264      -1.20703615       0.00000000
Si      -1.35018037      -1.39567886       1.30930688       0.00000000
Si       1.35769006       1.27869933       1.41672995       0.00000000
Si      -1.38230425       1.32529525      -1.36649902       0.00000000
Si       2.69034239       2.62135372       0.09275961       0.00000000
Si      -2.69589728       2.64756433       0.03702332       0.00000000
Si      -2.67279806      -0.04535188       2.69591636       0.00000000
Si       0.02981070       2.70068602       2.70075944       0.00000000
Si       0.03487689      -2.75296168       2.64952780       0.00000000
Si      -2.68825727      -2.71612999      -0.09896810       0.00000000
