10
Lattice="16.290000149 0.0 0.0 0.0 16.290000149 0.0 0.0 0.0 29.1751946751" Properties=species:S:1:pos:R:3:initial_magmoms:R:1 pbc="T T T"
H       -1.97631911      -0.61890598      -1.08412106       0.00000000
H        1.22272741      -1.99080092       0.21134511       0.00000000
Si       1.87536998       0.69825457       1.27959486       0.00000000
Si      -0.76217653      -1.86310361       1.28957278       0.00000000
Si       0.63045559      -0.34153614      -2.32794713       0.00000000
Si      -1.78121378       1.55015641       0.62960070       0.00000000
H       -2.63026487      -0.20092086      -1.12940096       0.00000000
H        2.33271173       1.97570009       0.61122033       0.00000000
H        2.84644947       0.43468236      -1.20805729       0.00000000
H       -0.43297191       2.16316541      -2.22644663       0.00000000
