10
Lattice="16.290000149 0.0 0.0 0.0 16.290000149 0.0 0.0 0.0 29.1751946751" Properties=species:S:1:pos:R:3:initial_magmoms:R:1 pbc="T T T"
Si       0.74375254      -1.31681845       1.79479963       0.00000000
Si      -1.74586448       0.97086772       1.27723167       0.00000000
Si       1.39572721       1.81788257      -0.75111539       0.00000000
Si       0.11020185      -1.73565065      -1.80369806       0.00000000
H       -2.14591430      -0.25992324      -1.30372275       0.00000000
Si       2.89105149       0.55138393      -2.02598387       0.00000000
Si       2.73429281      -2.21616167       0.81597184       0.00000000
Si      -0.76145977      -3.17704687       1.72997234       0.00000000
Si      -2.78501988       0.58386619      -2.38445949       0.00000000
Si       1.46269540      -0.71662969      -3.43301598       0.00000000
