10
Lattice="16.290000149 0.0 0.0 0.0 16.290000149 0.0 0.0 0.0 29.1751946751" Properties=species:S:1:pos:R:3:initial_magmoms:R:1 pbc="T T T"
Si       0.85227652      -1.83702332       1.13015952       0.00000000
Si      -1.72191818       0.75717550       1.37756517       0.00000000
Si      -1.08113473      -0.10215459      -2.09661701       0.00000000
Si       1.78735511       1.60910992       0.11757603       0.00000000
H        2.33215787       1.86513986      -1.26503644       0.00000000
H       -1.15266412      -3.05038398      -1.03758662       0.00000000
H        1.66053746       0.92398510      -2.88169233       0.00000000
Si       2.56657097      -2.28459107      -0.39366090       0.00000000
Si      -0.36655758       2.10771425       2.71863217       0.00000000
Si      -0.63211717       2.10882197      -2.70877095       0.00000000
