10
Lattice="16.290000149 0.0 0.0 0.0 16.290000149 0.0 0.0 0.0 29.1751946751" Properties=species:S:1:pos:R:3:initial_magmoms:R:1 pbc="T T T"
Si       1.45617452      -1.21759606      -1.33677824       0.00000000
Si      -1.15308766      -1.63188334       1.18953104       0.00000000
Si      -1.77707612       1.12392856      -1.03612786       0.00000000
Si       1.45525739       1.41196834       1.32610012       0.00000000
H       -2.03976866      -0.87474043       2.16847552       0.00000000
Si      -3.38085921       1.33784884       0.64935231       0.00000000
Si       2.63239886       0.31884417      -2.64557748       0.00000000
Si       2.89259904      -2.39720384       0.11425006       0.00000000
Si      -1.01981917       3.05039375      -2.10221865       0.00000000
Si       0.24225055      -2.80735347       2.65062479       0.00000000
