10
Lattice="16.290000149 0.0 0.0 0.0 16.290000149 0.0 0.0 0.0 29.1751946751" Properties=species:S:1:pos:R:3:initial_magmoms:R:1 pbc="T T T"
Si       0.69064714      -2.04888128      -0.76844545       0.00000000
Si      -0.60098698      -0.51179922       2.18525126       0.00000000
Si      -1.82130347       0.88114240      -1.15061133       0.00000000
Si       1.76236625       1.48830328      -0.32507002       0.00000000
H        1.36231642       0.25751232      -2.90602444       0.00000000
Si       0.15923475       1.53759682       3.06607956       0.00000000
Si      -2.83929816      -1.27334044      -1.54310522       0.00000000
Si       2.15770826       2.13247505       1.89924682       0.00000000
Si      -0.70615522       2.32754780      -2.69923066       0.00000000
Si       0.77900410       3.34137225      -1.22783807       0.00000000
