10
Lattice="16.290000149 0.0 0.0 0.0 16.290000149 0.0 0.0 0.0 29.1751946751" Properties=species:S:1:pos:R:3:initial_magmoms:R:1 pbc="T T T"
Si       1.32765130       1.33686216       1.33275790       0.00000000
Si      -1.42286635       1.34128815      -1.24629430       0.00000000
Si       1.22284144      -1.21378045      -1.59181029       0.00000000
Si      -1.46059399      -1.43716523       1.21001786       0.00000000
Si      -2.45449577      -0.51029680      -2.21156145       0.00000000
Si      -0.71117254      -2.05320416      -2.67483232       0.00000000
Si       2.64473267      -0.09903945       2.60628433       0.00000000
Si       2.62660407       2.62833011      -0.13782362       0.00000000
Si      -0.11601738       2.66947865       2.61334472       0.00000000
Si       2.53426790      -2.73427278      -0.28253259       0.00000000
