10
Lattice="16.290000149 0.0 0.0 0.0 16.290000149 0.0 0.0 0.0 29.1751946751" Properties=species:S:1:pos:R:3:initial_magmoms:R:1 pbc="T T T"
Si      -1.37150398       1.35593074       1.33240197       0.00000000
Si      -1.37474569      -1.34664544      -1.34194225       0.00000000
Si       1.34877943       1.36629118      -1.35609222       0.00000000
Si       1.36868581      -1.34547256       1.36318180       0.00000000
Si      -0.00356751       2.71319726       2.66130291       0.00000000
Si      -0.01611081      -2.70389405      -2.68166719       0.00000000
Si       2.71862183      -2.69488242      -0.00971534       0.00000000
Si       2.71997390       0.02063943      -2.69368737       0.00000000
Si      -2.70352100       0.02420694      -2.71457681       0.00000000
Si      -2.71808426      -2.70334833       0.02290253       0.00000000
