10
Lattice="16.290000149 0.0 0.0 0.0 16.290000149 0.0 0.0 0.0 29.1751946751" Properties=species:S:1:pos:R:3:initial_magmoms:R:1 pbc="T T T"
Si      -1.23926176      -1.31458672       1.49738769       0.00000000
Si       1.52599834       0.69822199       1.65432106       0.00000000
Si       0.57889774      -1.08445789      -2.06166513       0.00000000
Si      -1.51537726       1.84740005      -0.35491624       0.00000000
H        1.63018918      -2.00401700       0.61028672       0.00000000
H        3.15773508       0.21051567      -0.89576600       0.00000000
Si       3.13999527       1.35273790       0.08466641       0.00000000
Si       0.25902729       2.54743022       2.27353540       0.00000000
Si      -1.91071928       1.20322828      -2.57923309       0.00000000
Si      -2.59431284       0.21354561       2.65269623       0.00000000
