10
Lattice="16.290000149 0.0 0.0 0.0 16.290000149 0.0 0.0 0.0 29.1751946751" Properties=species:S:1:pos:R:3:initial_magmoms:R:1 pbc="T T T"
Si       2.29845386       0.07019361      -0.45160284       0.00000000
Si      -0.87063535       2.07246269      -0.79648281       0.00000000
Si      -0.15866460       0.43823358       2.35569274       0.00000000
Si      -0.91748539      -2.09016666      -0.81553422       0.00000000
H       -2.29211705       0.14946075       0.92721686       0.00000000
H       -1.02447811       2.86976046       0.47847319       0.00000000
Si      -3.52069257       0.15794784       0.04005754       0.00000000
Si      -2.97916410      -1.38699740      -1.68256265       0.00000000
Si       3.05867559       2.11958966       0.42922546       0.00000000
Si       2.03916593       0.05132979       3.16580037       0.00000000
