10
Lattice="16.290000149 0.0 0.0 0.0 16.290000149 0.0 0.0 0.0 29.1751946751" Properties=species:S:1:pos:R:3:initial_magmoms:R:1 pbc="T T T"
Si      -1.45679842      -1.29867139       1.30302254       0.00000000
Si       1.37077093      -1.38596950      -1.31119160       0.00000000
Si      -1.36257706       1.32727663      -1.37984083       0.00000000
Si       1.38365632       1.34890975       1.34057102       0.00000000
Si      -0.05551632       2.71790507       2.57398155       0.00000000
Si      -0.21377367      -2.68934870       2.67186433       0.00000000
Si       2.72466542       2.68288157      -0.03191766       0.00000000
Si       2.72399753      -0.03779280      -2.68490564       0.00000000
Si       0.00967626      -2.73139319      -2.67796194       0.00000000
Si      -0.00995319       2.67975389      -2.74182645       0.00000000
