10
Lattice="16.28999089631971 0.0 0.0 0.0 16.28999089631971 0.0 0.0 0.0 34.185847837958455" Properties=species:S:1:pos:R:3:initial_magmoms:R:1 pbc="T T T"
Si      -1.52945411       1.18509913       1.36251191       0.00000000
Si       1.33801662       1.37233639      -1.39023665       0.00000000
Si      -1.37447105      -1.34628237      -1.38466435       0.00000000
Si       1.46763615      -1.36487950       1.60041136       0.00000000
Si       2.69026581       2.69751160      -0.04215117       0.00000000
Si       2.68902777      -2.70647503      -0.00827298       0.00000000
Si       2.69253012       0.01328124      -2.74580883       0.00000000
Si      -2.74226090       2.70596611      -0.02454545       0.00000000
Si      -2.75205119      -2.69604943      -0.02994682       0.00000000
Si      -0.02222119      -2.70328219      -2.74690278       0.00000000
