10
Lattice="16.28999089631971 0.0 0.0 0.0 16.28999089631971 0.0 0.0 0.0 34.185847837958455" Properties=species:S:1:pos:R:3:initial_magmoms:R:1 pbc="T T T"
Si       1.21391451      -1.47704362      -1.40042404       0.00000000
Si       0.95262291      -0.33392871       2.16379445       0.00000000
Si      -2.34659079      -0.42153633      -0.17554443       0.00000000
Si       1.00194903       2.12586129      -0.60143196       0.00000000
Si       3.16975707       1.24023915      -0.08737908       0.00000000
Si      -0.50376825       1.28744757       3.20444642       0.00000000
Si       3.41130519      -1.07598708      -0.64303616       0.00000000
Si      -2.39632416      -2.00758612      -1.88333360       0.00000000
Si       0.61685343      -0.95610897      -3.67898044       0.00000000
Si       3.08767176       0.71776998       2.18731432       0.00000000
