10
Lattice="16.28999089631971 0.0 0.0 0.0 16.28999089631971 0.0 0.0 0.0 34.185847837958455" Properties=species:S:1:pos:R:3:initial_magmoms:R:1 pbc="T T T"
Si      -2.11012515      -1.05412657       0.10700176       0.00000000
Si       1.56962295      -1.52573836      -1.00851726       0.00000000
Si      -0.33839217       2.18905672      -0.96619516       0.00000000
Si       1.12024701       0.33790510       2.13053160       0.00000000
Si      -2.09354193      -2.10756829       2.27421480       0.00000000
Si       1.79665668       3.24075541      -0.94267528       0.00000000
Si       3.11968161      -0.34574401      -2.39290813       0.00000000
Si       0.62035578      -2.76234484      -2.79674577       0.00000000
Si       3.36526965       1.11830524       1.81926928       0.00000000
Si      -2.77048917      -2.23961503      -1.87044552       0.00000000
