10
Lattice="16.28999089631971 0.0 0.0 0.0 16.28999089631971 0.0 0.0 0.0 34.185847837958455" Properties=species:S:1:pos:R:3:initial_magmoms:R:1 pbc="T T T"
Si       1.35684297       1.35677781      -1.35711055       0.00000000
Si      -1.35751086       1.35681039       1.35697380       0.00000000
Si       1.35767376      -1.35847197       1.35711055       0.00000000
Si      -1.35739683      -1.35866745      -1.35840961       0.00000000
Si       0.00329058       2.70800073      -2.71473388       0.00000000
Si      -2.71482950      -0.00140094       2.71278529       0.00000000
Si      -2.71461447       2.71428867      -0.00010256       0.00000000
Si       2.71448415      -0.00172674       2.71459714       0.00000000
Si      -2.71439293       0.00306252      -2.71469969       0.00000000
Si      -0.00058644       2.71503801       2.71459714       0.00000000
