10
Lattice="16.28999089631971 0.0 0.0 0.0 16.28999089631971 0.0 0.0 0.0 34.185847837958455" Properties=species:S:1:pos:R:3:initial_magmoms:R:1 pbc="T T T"
Si       1.35457866      -1.35736425      -1.36134959       0.00000000
Si       1.36871838       1.36399428       1.34500875       0.00000000
Si      -1.36049193       1.35940050      -1.36134959       0.00000000
Si      -1.36386396      -1.38787542       1.34227388       0.00000000
Si      -0.05833449       2.64411135       2.66663437       0.00000000
Si       2.71261080      -2.71472850      -0.00417068       0.00000000
Si      -2.71611315      -2.71305063      -0.00581160       0.00000000
Si       2.71298547       2.71774215      -0.00769182       0.00000000
Si       2.71318095       0.00123804      -2.71859688       0.00000000
Si      -0.00223173      -2.71410948      -2.71883618       0.00000000
