10
Lattice="16.28999089631971 0.0 0.0 0.0 16.28999089631971 0.0 0.0 0.0 34.185847837958455" Properties=species:S:1:pos:R:3:initial_magmoms:R:1 pbc="T T T"
Si      -1.80146223      -0.92352897      -1.15490114       0.00000000
Si       0.96363495       1.83109374      -1.09367426       0.00000000
Si      -1.69541433       0.59623029       1.61849568       0.00000000
Si       1.83809844      -1.65278340       0.21954164       0.00000000
Si      -0.34189452      -2.20089303      -2.41803474       0.00000000
Si       2.39068782       0.55097667      -2.41529987       0.00000000
Si      -0.38597526      -0.42402870       3.41318533       0.00000000
Si       1.55717739      -1.77481179       2.60352725       0.00000000
Si      -2.66227470       2.75677299       0.23232715       0.00000000
Si       0.97572213      -3.58125876      -1.00055195       0.00000000
