10
Lattice="16.28999089631971 0.0 0.0 0.0 16.28999089631971 0.0 0.0 0.0 34.185847837958455" Properties=species:S:1:pos:R:3:initial_magmoms:R:1 pbc="T T T"
Si       0.74300319      -0.64350387      -2.24460984       0.00000000
Si       1.81662822       0.85643046       1.47533694       0.00000000
Si      -1.77407874       1.85583825       0.01958850       0.00000000
Si      -1.05774228      -1.94846319       1.33954384       0.00000000
Si      -1.54880433      -0.60232275      -2.72823730       0.00000000
Si       0.46278261       2.18652525       2.84768412       0.00000000
Si      -2.26209456      -0.53988318       2.81856802       0.00000000
Si       2.43864558       2.63880081      -1.21889709       0.00000000
Si      -3.51276420       0.82689669       1.34224794       0.00000000
Si       2.45288304       0.93903705      -2.88145835       0.00000000
