10
Lattice="16.28999089631971 0.0 0.0 0.0 16.28999089631971 0.0 0.0 0.0 34.185847837958455" Properties=species:S:1:pos:R:3:initial_magmoms:R:1 pbc="T T T"
Si       1.34377839       1.33265232      -1.36917816       0.00000000
Si      -1.35918873       1.35244467       1.35413638       0.00000000
Si       1.35539316      -1.36127385       1.35478591       0.00000000
Si      -1.36423863      -1.35448092      -1.37755028       0.00000000
Si      -0.04585635       2.65808817      -2.75245457       0.00000000
Si       2.57974956      -0.12378771      -2.83009409       0.00000000
Si      -0.00128691       2.71248048       2.71199901       0.00000000
Si       2.71329498      -0.00239463       2.71172552       0.00000000
Si      -2.71652529      -0.00312768       2.71175971       0.00000000
Si      -0.00110772      -2.71801908       2.71199901       0.00000000
