10
Lattice="16.28999089631971 0.0 0.0 0.0 16.28999089631971 0.0 0.0 0.0 34.185847837958455" Properties=species:S:1:pos:R:3:initial_magmoms:R:1 pbc="T T T"
Si      -1.34426709      -1.35374787       1.35270057       0.00000000
Si       1.35441576       1.33867962       1.37273349       0.00000000
Si      -1.35617508       1.35557235      -1.35471754       0.00000000
Si       1.35578412      -1.35793440      -1.35304243       0.00000000
Si      -2.71362078       2.71081890       0.00574323       0.00000000
Si      -0.00014661       2.71321353      -2.71175971       0.00000000
Si      -2.71480995      -0.00125433      -2.71124692       0.00000000
Si       2.71453302      -0.00114030      -2.71155459       0.00000000
Si       0.00019548      -2.71650411      -2.71090506       0.00000000
Si       2.71841004       2.70920619       0.00540137       0.00000000
