10
Lattice="16.28999089631971 0.0 0.0 0.0 16.28999089631971 0.0 0.0 0.0 34.185847837958455" Properties=species:S:1:pos:R:3:initial_magmoms:R:1 pbc="T T T"
Si       1.30565979      -1.43827668       1.31475426       0.00000000
Si       1.36335897       1.34617302      -1.35382870       0.00000000
Si      -1.32665760       1.31020470       1.43156736       0.00000000
Si      -1.35285192      -1.36506942      -1.35714473       0.00000000
Si      -2.32024986      -0.51259743       2.64075566       0.00000000
Si      -2.70788670       2.69850366       0.00509369       0.00000000
Si       0.00374670       2.70643689      -2.71302459       0.00000000
Si      -2.71129783      -0.01042560      -2.71415272       0.00000000
Si      -2.70412208      -2.72161917      -0.02991263       0.00000000
Si       2.72702745       2.70145215       0.02249430       0.00000000
