10
Lattice="16.28999089631971 0.0 0.0 0.0 16.28999089631971 0.0 0.0 0.0 34.185847837958455" Properties=species:S:1:pos:R:3:initial_magmoms:R:1 pbc="T T T"
Si       1.46789190       0.85480146       1.60482134       0.00000000
Si      -0.94216473       2.27465415      -0.18333880       0.00000000
Si       0.83137644       0.01293426      -2.37417427       0.00000000
Si      -1.07435808      -1.60572159       1.82108113       0.00000000
Si       2.58514155      -1.10240946      -1.25120273       0.00000000
Si       2.28390687      -1.99324440       0.84459603       0.00000000
Si      -2.71630863       0.10638999       2.26242067       0.00000000
Si      -2.24148771       2.42149221       1.79410848       0.00000000
Si       2.68271865       2.65175136      -0.04362117       0.00000000
Si      -1.86856074      -3.49568739       0.63250691       0.00000000
