10
Lattice="16.28999089631971 0.0 0.0 0.0 16.28999089631971 0.0 0.0 0.0 34.185847837958455" Properties=species:S:1:pos:R:3:initial_magmoms:R:1 pbc="T T T"
Si      -0.59574159       1.72125027      -1.40948329       0.00000000
Si      -1.41130044      -1.21443579       1.44770309       0.00000000
Si       1.50746031       0.76460373       1.66844124       0.00000000
Si       0.97854030      -1.76236623      -1.44825007       0.00000000
Si       2.16917640      -1.48050036       1.68290186       0.00000000
Si       0.16747749      -2.80976436       2.06756123       0.00000000
Si       3.08889351      -1.71672165      -0.46051781       0.00000000
Si      -2.99547036      -1.95157458      -0.06809825       0.00000000
Si      -1.98355185       0.63403938      -2.96302583       0.00000000
Si       1.32665760       2.95966494      -1.85844628       0.00000000
