10
Lattice="16.28999089631971 0.0 0.0 0.0 16.28999089631971 0.0 0.0 0.0 34.185847837958455" Properties=species:S:1:pos:R:3:initial_magmoms:R:1 pbc="T T T"
Si      -1.34377839      -1.33265232       1.36917816       0.00000000
Si      -1.38963474       1.32543585      -1.38327641       0.00000000
Si       1.37285604       1.38145716       1.36586213       0.00000000
Si       1.23597117      -1.45644003      -1.46091593       0.00000000
Si       1.96714782       0.44960400      -2.64998209       0.00000000
Si       0.36321813       2.24748243      -2.79402599       0.00000000
Si      -2.70801702      -2.68713324      -0.00837212       0.00000000
Si      -2.67529041       2.73608562       0.01250177       0.00000000
Si       0.01161477      -2.69392617       2.72396406       0.00000000
Si      -2.70296712       0.01979235       2.72331453       0.00000000
