10
Lattice="16.28999089631971 0.0 0.0 0.0 16.28999089631971 0.0 0.0 0.0 34.185847837958455" Properties=species:S:1:pos:R:3:initial_magmoms:R:1 pbc="T T T"
Si       1.35741312      -1.35488491      -1.35670032       0.00000000
Si      -1.35607734      -1.35670450       1.35728148       0.00000000
Si       1.35889551       1.35883035       1.35693962       0.00000000
Si      -1.35550719       1.36047564      -1.35892240       0.00000000
Si      -0.01725111       2.70093087      -2.71762942       0.00000000
Si      -0.01420488      -2.70836630      -2.71044355       0.00000000
Si       0.00084708      -2.71325855       2.71391342       0.00000000
Si      -2.71388142       0.00107514       2.71422109       0.00000000
Si       2.71490769      -2.71517078      -0.00088883       0.00000000
Si      -2.71552671      -2.71476827      -0.00030767       0.00000000
