10
Lattice="16.28999089631971 0.0 0.0 0.0 16.28999089631971 0.0 0.0 0.0 34.185847837958455" Properties=species:S:1:pos:R:3:initial_magmoms:R:1 pbc="T T T"
Si       0.39607506       2.27796102      -0.34589260       0.00000000
Si       1.70338014      -1.25410194      -1.11022021       0.00000000
Si      -1.00580976      -0.00977400       2.26522392       0.00000000
Si      -1.91616338      -1.54281613       0.41436689       0.00000000
Si      -2.67465510      -0.54061623      -1.56458457       0.00000000
Si       2.68788258       2.23677990       0.13773486       0.00000000
Si       3.35394810       0.43689780      -1.29167880       0.00000000
Si      -0.63506565      -3.60135152      -0.08208027       0.00000000
Si       1.77486066      -3.22616024       0.22138767       0.00000000
Si      -0.18292041       2.60027496      -2.61480859       0.00000000
