10
Lattice="16.28999089631971 0.0 0.0 0.0 16.28999089631971 0.0 0.0 0.0 34.185847837958455" Properties=species:S:1:pos:R:3:initial_magmoms:R:1 pbc="T T T"
Si      -1.35672894      -1.35508839       1.35786263       0.00000000
Si      -1.35749457       1.36028586      -1.35581148       0.00000000
Si       1.35966114      -1.35282408      -1.36124704       0.00000000
Si       1.35840681       1.35917000       1.35782845       0.00000000
Si       2.69065188       0.00973668      -2.73449331       0.00000000
Si       0.00107514      -2.71315311       2.71487062       0.00000000
Si      -2.71406061       0.00191222       2.71480225       0.00000000
Si      -2.71513575      -2.71457034      -0.00013674       0.00000000
Si      -2.71490769       2.71517078       0.00088883       0.00000000
Si       2.71616202       0.00159310       2.71500737       0.00000000
