10
Lattice="16.28999089631971 0.0 0.0 0.0 16.28999089631971 0.0 0.0 0.0 34.185847837958455" Properties=species:S:1:pos:R:3:initial_magmoms:R:1 pbc="T T T"
Si       1.35676152       1.35490446       1.35799938       0.00000000
Si      -1.35742941       1.35716877      -1.35769171       0.00000000
Si       1.35698958      -1.35766236      -1.35769171       0.00000000
Si      -1.35907470      -1.35760371       1.35632427       0.00000000
Si       2.71560816       0.00244350       2.71237505       0.00000000
Si       2.71437012      -0.00112401      -2.71408435       0.00000000
Si      -0.00035838      -2.71133108       2.71722945       0.00000000
Si       2.71463076       2.71450044      -0.00047860       0.00000000
Si      -2.71479366       2.71476108      -0.00017093       0.00000000
Si      -2.71536381      -0.00120546       2.71425528       0.00000000
