10
Lattice="16.28999089631971 0.0 0.0 0.0 16.28999089631971 0.0 0.0 0.0 34.185847837958455" Properties=species:S:1:pos:R:3:initial_magmoms:R:1 pbc="T T T"
Si       0.10135638       1.02363102       2.13983016       0.00000000
Si      -0.88747920      -2.24868137      -0.21950745       0.00000000
Si       2.41342866      -0.60084036      -0.14139275       0.00000000
Si      -2.12113719      -0.86863167      -1.80696237       0.00000000
Si      -2.14948179       1.63354491       1.82320066       0.00000000
Si      -2.42900190       2.50515765      -0.39508606       0.00000000
Si      -0.46750671       1.49656230      -3.21624055       0.00000000
Si       2.54549169      -0.86007942      -2.44859691       0.00000000
Si       0.92913273      -0.77869458       3.45184954       0.00000000
Si       0.83869065      -2.55251987      -2.56298282       0.00000000
