10
Lattice="16.28999089631971 0.0 0.0 0.0 16.28999089631971 0.0 0.0 0.0 34.185847837958455" Properties=species:S:1:pos:R:3:initial_magmoms:R:1 pbc="T T T"
Si      -0.31654728       2.05871391       1.00390217       0.00000000
Si       0.08208531       0.52246917      -2.27469340       0.00000000
Si      -2.13504885      -1.05169869      -0.02351988       0.00000000
Si       2.06047323      -0.85592547       0.83068238       0.00000000
Si       0.32363343      -1.79375706      -2.83035048       0.00000000
Si       1.21261131       3.37017294      -0.29126359       0.00000000
Si       1.61533269       2.27665782      -2.34617605       0.00000000
Si      -2.52058428       2.65017123       0.66341093       0.00000000
Si      -2.08572273       1.40809131      -2.78874628       0.00000000
Si      -3.59144001       0.56967759       1.01713210       0.00000000
