10
Lattice="16.28999089631971 0.0 0.0 0.0 16.28999089631971 0.0 0.0 0.0 34.185847837958455" Properties=species:S:1:pos:R:3:initial_magmoms:R:1 pbc="T T T"
Si      -1.35578412       1.35793440       1.35304243       0.00000000
Si      -1.35558864      -1.35856971      -1.35786263       0.00000000
Si       1.35874890       1.35679410      -1.35851217       0.00000000
Si       1.35881406      -1.35943308       1.36128122       0.00000000
Si      -2.70005121       0.00418653       2.70574300       0.00000000
Si      -0.00136836       2.69661402       2.72577591       0.00000000
Si      -2.71195920       2.71350675      -0.00167511       0.00000000
Si       0.00200367       2.71327869      -2.71545178       0.00000000
Si       2.71539639       2.71340901      -0.00140162       0.00000000
Si      -2.71340901      -0.00102627      -2.71552015       0.00000000
