10
Lattice="16.28999089631971 0.0 0.0 0.0 16.28999089631971 0.0 0.0 0.0 34.185847837958455" Properties=species:S:1:pos:R:3:initial_magmoms:R:1 pbc="T T T"
Si      -1.22329755       1.63199736       1.05989862       0.00000000
Si       1.15178445       1.48649508      -1.42808041       0.00000000
Si      -1.54219059      -1.08276372      -1.44377172       0.00000000
Si       0.25663266      -2.56907961       0.54765759       0.00000000
Si       1.46429181       2.55174705       1.86839437       0.00000000
Si      -1.52453223       0.74116242       3.15569738       0.00000000
Si       2.63503782      -2.57782734       0.79075329       0.00000000
Si      -0.20240325      -2.51160849      -2.85431477       0.00000000
Si       2.53037457       0.20426031      -2.84853736       0.00000000
Si       1.88792955       3.39807771      -0.28381107       0.00000000
