10
Lattice="16.28999089631971 0.0 0.0 0.0 16.28999089631971 0.0 0.0 0.0 34.185847837958455" Properties=species:S:1:pos:R:3:initial_magmoms:R:1 pbc="T T T"
Si       0.73614510       1.91158263       1.14426934       0.00000000
Si       1.37859012      -1.28223477      -1.42045696       0.00000000
Si      -1.15178445      -1.48649508       1.42808041       0.00000000
Si      -1.35343836       1.41965721      -1.43676362       0.00000000
Si      -2.37508200       0.14550228       2.48797902       0.00000000
Si       0.31250736       1.06525197       3.29647478       0.00000000
Si      -2.69397504      -2.56925880      -0.01569131       0.00000000
Si       2.67665877       2.75674041       0.02300709       0.00000000
Si       0.00674406      -2.63638989      -2.80125831       0.00000000
Si      -2.73197961       2.74105314      -0.01828944       0.00000000
