10
Lattice="16.28999089631971 0.0 0.0 0.0 16.28999089631971 0.0 0.0 0.0 34.185847837958455" Properties=species:S:1:pos:R:3:initial_magmoms:R:1 pbc="T T T"
Si       1.53324738       1.75418865      -0.07148265       0.00000000
Si      -0.08208531      -0.52246917       2.27469340       0.00000000
Si       0.24154812      -2.31622623      -0.55565708       0.00000000
Si      -2.16780804       0.88562214      -0.51405288       0.00000000
Si      -3.16975707      -1.24023915       0.08737908       0.00000000
Si      -2.21713416      -1.57416786       2.25117352       0.00000000
Si      -1.95584256      -2.71728277      -1.31304496       0.00000000
Si      -0.39863259       1.53624474       3.27859557       0.00000000
Si       1.13052600       2.84770377       1.98342981       0.00000000
Si       3.68033454       0.82883520       0.15199036       0.00000000
