10
Lattice="16.28999089631971 0.0 0.0 0.0 16.28999089631971 0.0 0.0 0.0 34.185847837958455" Properties=species:S:1:pos:R:3:initial_magmoms:R:1 pbc="T T T"
Si       1.25066964      -1.36677987       1.47632008       0.00000000
Si       1.73868546       1.02894156      -1.32265944       0.00000000
Si      -1.44468696       1.33224507       1.47311687       0.00000000
Si      -1.19683282      -1.90193895      -1.23425478       0.00000000
Si      -2.68408931       2.54980854      -0.07542428       0.00000000
Si       2.45502192      -2.77535988      -0.00270410       0.00000000
Si       2.63202906       2.66419692       0.16001037       0.00000000
Si       3.51276420      -0.82689669      -1.34224794       0.00000000
Si       2.61050997      -0.00990432       2.84697165       0.00000000
Si      -0.10691616       2.71085148       2.84242493       0.00000000
