10
Lattice="16.28999089631971 0.0 0.0 0.0 16.28999089631971 0.0 0.0 0.0 34.185847837958455" Properties=species:S:1:pos:R:3:initial_magmoms:R:1 pbc="T T T"
Si       0.42363774       0.84633066      -2.15220544       0.00000000
Si       1.86751818       0.46120248       1.50568232       0.00000000
Si      -0.22763646       0.99707832       2.42230797       0.00000000
Si      -2.68758936      -0.91974969      -0.80849575       0.00000000
Si      -1.38792429       2.57553045      -1.87010367       0.00000000
Si      -0.31250736      -1.06525197      -3.29647478       0.00000000
Si      -1.46429181      -2.55174705      -1.86839437       0.00000000
Si      -2.05530930      -0.41168088       2.84002508       0.00000000
Si      -2.98882404      -1.81058463       1.28730301       0.00000000
Si      -2.59001226       2.83441113       0.39908581       0.00000000
