10
Lattice="16.28999089631971 0.0 0.0 0.0 16.28999089631971 0.0 0.0 0.0 34.185847837958455" Properties=species:S:1:pos:R:3:initial_magmoms:R:1 pbc="T T T"
Si      -2.17706076       0.48019662      -0.68648639       0.00000000
Si      -0.16158051      -0.38696895       2.29489725       0.00000000
Si       0.63555435      -1.83221775      -1.35413638       0.00000000
Si       1.43210277       1.78584012      -0.65189030       0.00000000
Si      -1.70031762       1.86277779      -2.53491622       0.00000000
Si      -1.23259914      -2.56036446       2.22447436       0.00000000
Si       0.63441405      -0.90163521      -3.56842335       0.00000000
Si      -3.12367266       2.00943666       0.78012148       0.00000000
Si       2.81145852      -2.51643033      -0.66122304       0.00000000
Si       1.94877270      -0.34132437       3.28262950       0.00000000
