10
Lattice="16.28999089631971 0.0 0.0 0.0 16.28999089631971 0.0 0.0 0.0 34.185847837958455" Properties=species:S:1:pos:R:3:initial_magmoms:R:1 pbc="T T T"
Si       2.11035321       0.04564458       0.98773225       0.00000000
Si       0.16158051       0.38696895      -2.29489725       0.00000000
Si      -1.07101863      -2.17339551      -0.07042289       0.00000000
Si      -0.97854030       1.76236623       1.44825007       0.00000000
Si       1.19063610       0.28186587       3.13115193       0.00000000
Si      -3.29940918      -1.57967388      -0.48807162       0.00000000
Si       2.73702951      -2.19468654       1.15261069       0.00000000
Si      -2.01548025       0.86716557      -2.98138364       0.00000000
Si      -0.99616608      -2.91468825       2.10728521       0.00000000
Si      -0.81106281      -1.04739813       3.51581130       0.00000000
