10
Lattice="16.28999089631971 0.0 0.0 0.0 16.28999089631971 0.0 0.0 0.0 34.185847837958455" Properties=species:S:1:pos:R:3:initial_magmoms:R:1 pbc="T T T"
Si       1.03985586      -1.23632955       1.69120902       0.00000000
Si      -0.00983916       2.30174442       0.56700679       0.00000000
Si       1.28552535      -0.26536410      -2.00325762       0.00000000
Si      -2.09256453      -1.15939188      -0.19181690       0.00000000
Si      -1.50736257      -2.47466277      -2.01782080       0.00000000
Si       2.88135891      -2.02018806       0.49391741       0.00000000
Si       2.06983998      -2.51504568      -1.64304114       0.00000000
Si      -0.29253582      -0.67771287      -3.66626330       0.00000000
Si      -3.78853272       0.38812554      -0.45538993       0.00000000
Si      -0.39224691      -3.02216967       2.34309932       0.00000000
