10
Lattice="16.28999089631971 0.0 0.0 0.0 16.28999089631971 0.0 0.0 0.0 34.185847837958455" Properties=species:S:1:pos:R:3:initial_magmoms:R:1 pbc="T T T"
Si       1.36704051      -0.89404407      -1.68546580       0.00000000
Si       0.20181681       2.37942233       0.28189666       0.00000000
Si       0.77962311      -0.96938532       2.09029483       0.00000000
Si      -2.29447908      -0.70061661      -0.43310075       0.00000000
Si      -0.99041571       2.51987471       2.25141283       0.00000000
Si      -0.06791301      -0.98124444      -3.57030357       0.00000000
Si       0.00897579       0.72713235       3.63153046       0.00000000
Si      -3.42753003      -0.23887656       1.57613940       0.00000000
Si       2.96378631       0.81217935      -2.22549994       0.00000000
Si      -0.59492709      -2.88966681       2.47782582       0.00000000
