10
Lattice="16.28999089631971 0.0 0.0 0.0 16.28999089631971 0.0 0.0 0.0 34.185847837958455" Properties=species:S:1:pos:R:3:initial_magmoms:R:1 pbc="T T T"
Si      -1.35743909      -1.35651717      -1.35618753       0.00000000
Si      -1.35370311       1.35624024       1.36056332       0.00000000
Si       1.35731864       1.35821133      -1.35581148       0.00000000
Si       1.35862184      -1.35601218       1.35734985       0.00000000
Si       0.00661863       2.71780731       2.68512892       0.00000000
Si       2.71087103      -0.03083697       2.70543532       0.00000000
Si      -0.00018733      -2.71388468      -2.71340063       0.00000000
Si       2.71482950       0.00140094      -2.71278529       0.00000000
Si      -2.71484646       0.00099369      -2.71312714       0.00000000
Si       2.71313534      -2.71506733       0.00177767       0.00000000
