10
Lattice="16.28999089631971 0.0 0.0 0.0 16.28999089631971 0.0 0.0 0.0 34.185847837958455" Properties=species:S:1:pos:R:3:initial_magmoms:R:1 pbc="T T T"
Si       1.35224986      -1.35699981      -1.36223843       0.00000000
Si      -1.37758014      -1.34976705       1.35471754       0.00000000
Si      -1.36304946       1.36041232      -1.36138378       0.00000000
Si       1.37447105       1.34628237       1.38466435       0.00000000
Si      -0.15498306       2.53138150       2.74717627       0.00000000
Si       2.71222703      -2.71087800      -0.00256394       0.00000000
Si      -2.71748151      -2.71149702      -0.00533300       0.00000000
Si       2.71152656       0.00276245      -2.71832340       0.00000000
Si      -0.00341924      -2.71201830      -2.71852851       0.00000000
Si       2.71248767       2.71861876      -0.00557230       0.00000000
