10
Lattice="16.28999089631971 0.0 0.0 0.0 16.28999089631971 0.0 0.0 0.0 34.185847837958455" Properties=species:S:1:pos:R:3:initial_magmoms:R:1 pbc="T T T"
Si      -1.35562122      -1.35750522      -1.35731566       0.00000000
Si      -1.35475785       1.36017753       1.35557218       0.00000000
Si       1.35947620       1.35770145      -1.35772589       0.00000000
Si       1.36304946      -1.36041232       1.36138378       0.00000000
Si      -0.00474039       2.69183616       2.72150268       0.00000000
Si      -2.71360449       2.71263849       0.00119651       0.00000000
Si      -0.01453068      -2.71017937       2.71610131       0.00000000
Si      -2.71337643       0.00007168      -2.71449458       0.00000000
Si      -2.71296918      -2.71669537      -0.00003419       0.00000000
Si       0.00169416      -2.71534330      -2.71446039       0.00000000
