10
Lattice="16.28999089631971 0.0 0.0 0.0 16.28999089631971 0.0 0.0 0.0 34.185847837958455" Properties=species:S:1:pos:R:3:initial_magmoms:R:1 pbc="T T T"
Si      -1.35382932       1.35809730       1.35782845       0.00000000
Si      -1.35643572      -1.35653346      -1.35755496       0.00000000
Si       1.35921993       1.35852084      -1.35728148       0.00000000
Si       1.36251171      -1.35830907       1.35875147       0.00000000
Si       2.72283345       0.00325800       2.68331707       0.00000000
Si      -2.71332756       0.00065160      -2.71466551       0.00000000
Si       0.00136836      -2.71355562      -2.71493899       0.00000000
Si       2.71565770       2.71445157      -0.00092302       0.00000000
Si      -2.71430496      -2.71612944       0.00092302       0.00000000
Si      -2.71487511       2.71570590      -0.00078627       0.00000000
