10
Lattice="16.28999089631971 0.0 0.0 0.0 16.28999089631971 0.0 0.0 0.0 34.185847837958455" Properties=species:S:1:pos:R:3:initial_magmoms:R:1 pbc="T T T"
Si       1.00077682       1.52601462      -1.48086338       0.00000000
Si       1.11021956      -2.09070747       0.13766649       0.00000000
Si      -0.48483927       0.78781698       2.20348424       0.00000000
Si      -2.01135888      -1.21375161      -0.96171681       0.00000000
Si      -2.47521663      -0.91315224       1.49474285       0.00000000
Si      -0.51368886      -1.74659751      -2.77961866       0.00000000
Si       1.83982422       1.58768856       2.38149005       0.00000000
Si      -1.07139330       2.67371028      -1.87167622       0.00000000
Si       0.91509794       0.09099594      -3.32799415       0.00000000
Si       0.04797405      -2.70888039       2.20902235       0.00000000
