10
Lattice="16.28999089631971 0.0 0.0 0.0 16.28999089631971 0.0 0.0 0.0 34.185847837958455" Properties=species:S:1:pos:R:3:initial_magmoms:R:1 pbc="T T T"
Si       1.69541433      -0.59623029      -1.61849568       0.00000000
Si       1.30943907      -1.02025899       1.79468964       0.00000000
Si      -2.19522085      -1.08062973       0.49925040       0.00000000
Si      -0.96686037       2.16054270      -1.38616853       0.00000000
Si      -0.10604790      -1.51975926      -2.77339683       0.00000000
Si      -1.87838687      -2.44257147      -1.52410851       0.00000000
Si      -2.80726289       0.49089915       2.12923254       0.00000000
Si       2.10364173       0.86970681       2.98326386       0.00000000
Si      -1.65294304       2.55301767       2.26795878       0.00000000
Si      -3.53602862      -0.59494338      -1.45132680       0.00000000
