10
Lattice="16.28999089631971 0.0 0.0 0.0 16.28999089631971 0.0 0.0 0.0 34.185847837958455" Properties=species:S:1:pos:R:3:initial_magmoms:R:1 pbc="T T T"
Si      -1.94051367      -0.84515778       1.12126225       0.00000000
Si      -1.29705867       1.38627900      -1.46517207       0.00000000
Si       1.39113342      -1.32939432      -1.44845518       0.00000000
Si       1.69741800       1.09560024       1.33529996       0.00000000
Si      -2.73950559       2.55855627      -0.03924538       0.00000000
Si       0.48037581       2.48391549       2.81059105       0.00000000
Si       2.68006338       2.66473449      -0.15735755       0.00000000
Si      -2.67665877      -2.75674041      -0.02300709       0.00000000
Si      -2.66610285       0.03344337      -2.82710282       0.00000000
Si       0.04771341      -2.67789681      -2.82833352       0.00000000
