10
Lattice="16.28999089631971 0.0 0.0 0.0 16.28999089631971 0.0 0.0 0.0 34.185847837958455" Properties=species:S:1:pos:R:3:initial_magmoms:R:1 pbc="T T T"
Si      -0.54804447      -1.33604064      -1.84220800       0.00000000
Si      -1.71216045       0.95938326       1.32039492       0.00000000
Si       1.43822781      -1.16646174       1.61282083       0.00000000
Si       0.81819783       1.76433732      -1.56543922       0.00000000
Si      -1.67822838       0.41853897      -2.99225475       0.00000000
Si       1.57724667      -1.59710418      -2.89342341       0.00000000
Si       2.98811186       0.64130472       2.06735612       0.00000000
Si       2.45827503       0.59769639      -2.72652800       0.00000000
Si      -3.00306150      -0.92476701       2.13955667       0.00000000
Si      -2.86987446       2.55142125      -0.00823879       0.00000000
