10
Lattice="16.28999089631971 0.0 0.0 0.0 16.28999089631971 0.0 0.0 0.0 34.185847837958455" Properties=species:S:1:pos:R:3:initial_magmoms:R:1 pbc="T T T"
Si       1.97577079      -0.01953171       1.20303484       0.00000000
Si      -1.64007720       1.16664093       1.16108878       0.00000000
Si       0.36786078       0.44486361      -2.28050500       0.00000000
Si      -0.88102836      -2.19480057      -0.16689540       0.00000000
Si      -2.77882965       1.67848902      -0.87645726       0.00000000
Si       1.19114176      -3.34249623       0.22391743       0.00000000
Si       3.07679723      -1.79186742       0.16050265       0.00000000
Si      -1.83990663       0.92087370      -2.97040998       0.00000000
Si       2.52868760       2.30514903       1.28914904       0.00000000
Si      -3.00631950      -1.93373703       0.88432001       0.00000000
