10
Lattice="16.28999089631971 0.0 0.0 0.0 16.28999089631971 0.0 0.0 0.0 34.185847837958455" Properties=species:S:1:pos:R:3:initial_magmoms:R:1 pbc="T T T"
Si      -1.17561672       1.56546900       1.32081541       0.00000000
Si       1.55411487      -1.19158092       1.32586808       0.00000000
Si       1.84727690       1.04097987      -1.21414149       0.00000000
Si      -1.60616142      -0.82202598      -1.67230906       0.00000000
Si      -0.41738238       0.71026029      -3.49944109       0.00000000
Si      -2.52139878      -2.58890454      -0.06993403       0.00000000
Si       0.48088080       2.59508727      -2.50148727       0.00000000
Si      -2.50660746       0.20290824       2.69406169       0.00000000
Si       0.21010842      -2.51545293       2.70322350       0.00000000
Si       2.80797965      -2.66900247      -0.16756203       0.00000000
