10
Lattice="16.28999089631971 0.0 0.0 0.0 16.28999089631971 0.0 0.0 0.0 34.185847837958455" Properties=species:S:1:pos:R:3:initial_magmoms:R:1 pbc="T T T"
Si      -1.33990137      -1.36172997      -1.36005053       0.00000000
Si       1.29375180      -1.45031499       1.31297659       0.00000000
Si       1.37758014       1.34976705      -1.35471754       0.00000000
Si      -1.50078141       1.22750037       1.34907687       0.00000000
Si      -0.07182261       2.37664488       2.83496557       0.00000000
Si      -2.68337025      -2.72877048       0.00516207       0.00000000
Si      -2.69843850      -0.00651600      -2.71613550       0.00000000
Si       0.01453068       2.71017937      -2.71610131       0.00000000
Si      -2.71168227       2.72257769       0.00888833       0.00000000
Si       0.01453068      -2.72007162      -2.71675085       0.00000000
