10
Lattice="16.28999089631971 0.0 0.0 0.0 16.28999089631971 0.0 0.0 0.0 34.185847837958455" Properties=species:S:1:pos:R:3:initial_magmoms:R:1 pbc="T T T"
Si       1.21704219      -1.38831525      -1.47529109       0.00000000
Si      -1.73148039       1.27777131      -1.46363371       0.00000000
Si       1.59808158       2.03836770      -0.27663204       0.00000000
Si       0.03595203      -1.58343687       2.31745992       0.00000000
Si       2.19968757       0.18081900      -2.96794860       0.00000000
Si      -2.92527675       1.35783666       1.95802972       0.00000000
Si      -0.48037581      -2.48391549      -2.81059105       0.00000000
Si       1.99114299       2.81891934       1.87037715       0.00000000
Si      -2.74598901       2.94467814      -0.20460241       0.00000000
Si       3.57822623       1.34741106      -1.49467447       0.00000000
