10
Lattice="16.28999089631971 0.0 0.0 0.0 16.28999089631971 0.0 0.0 0.0 34.185847837958455" Properties=species:S:1:pos:R:3:initial_magmoms:R:1 pbc="T T T"
Si      -1.93668552       1.22202693       0.46068874       0.00000000
Si      -0.69299289      -2.22684300      -0.22015698       0.00000000
Si       1.38616497       1.01542086      -1.66587730       0.00000000
Si       1.48774941      -0.21323610       1.86326649       0.00000000
Si       1.47880620      -3.09493710      -0.55716126       0.00000000
Si      -3.36547232      -0.61556652       1.00906423       0.00000000
Si       2.18036763       2.90538666      -0.47730307       0.00000000
Si      -1.89290940      -2.48865588       1.95194463       0.00000000
Si       2.80723941       1.80268398       1.68238907       0.00000000
Si      -2.11849495       0.95505012      -2.96131654       0.00000000
