10
Lattice="16.28999089631971 0.0 0.0 0.0 16.28999089631971 0.0 0.0 0.0 34.185847837958455" Properties=species:S:1:pos:R:3:initial_magmoms:R:1 pbc="T T T"
Si      -0.39306141      -0.78055164      -2.14700919       0.00000000
Si       0.97901827       2.00010968      -0.70775000       0.00000000
Si      -1.88472042       0.33234111       1.43245620       0.00000000
Si       1.83966784      -1.14831468       1.04865147       0.00000000
Si       2.23387118       2.74037615       1.11343369       0.00000000
Si      -1.15702983       1.18885953      -3.31633677       0.00000000
Si      -0.95809635       1.17795826       3.42952617       0.00000000
Si      -3.16239399       2.07743831       0.34661050       0.00000000
Si       1.86097027      -3.35873736       0.30630537       0.00000000
Si      -1.99114299      -2.81891934      -1.87037715       0.00000000
