10
Lattice="16.28999089631971 0.0 0.0 0.0 16.28999089631971 0.0 0.0 0.0 34.185847837958455" Properties=species:S:1:pos:R:3:initial_magmoms:R:1 pbc="T T T"
Si       1.13293692      -0.64086489      -1.95854250       0.00000000
Si      -0.25231581       2.32932339       0.31492021       0.00000000
Si       1.15009029      -0.82746684       1.95361974       0.00000000
Si      -2.01741876      -1.37712402      -0.18754367       0.00000000
Si      -1.67687631       2.28289689       2.21620138       0.00000000
Si       1.83899897      -2.86775676      -1.30613942       0.00000000
Si       2.72735555      -2.29838868       0.94058994       0.00000000
Si      -0.29561463       0.22827177      -3.72024278       0.00000000
Si      -0.38279871      -2.24143884       2.98958825       0.00000000
Si      -1.53350802      -3.21517359       1.22491380       0.00000000
