10
Lattice="16.28999089631971 0.0 0.0 0.0 16.28999089631971 0.0 0.0 0.0 34.185847837958455" Properties=species:S:1:pos:R:3:initial_magmoms:R:1 pbc="T T T"
Si       0.25231581      -2.32932339      -0.31492021       0.00000000
Si      -1.42456050      -0.04642650       1.90128118       0.00000000
Si      -1.32872643       1.37918212      -1.48400848       0.00000000
Si       2.23567122       0.88997876       0.40161556       0.00000000
Si      -2.91718062       1.79388479       1.66922751       0.00000000
Si       1.40240610      -3.15679023       1.63869953       0.00000000
Si       3.04699141       1.72844135      -1.65022017       0.00000000
Si      -0.01681128      -0.59963490       3.85893485       0.00000000
Si      -2.42532036       3.06040949      -0.26203467       0.00000000
Si       1.38525273      -2.97018828      -2.27346271       0.00000000
