10
Lattice="16.28999089631971 0.0 0.0 0.0 16.28999089631971 0.0 0.0 0.0 34.185847837958455" Properties=species:S:1:pos:R:3:initial_magmoms:R:1 pbc="T T T"
Si       1.42456050       0.04642650      -1.90128118       0.00000000
Si      -1.49262012       1.84031129      -0.23205366       0.00000000
Si      -1.48261806      -1.83423771       0.46062037       0.00000000
Si       1.40774922      -0.55320840       1.95765367       0.00000000
Si       1.67687631      -2.28289689      -2.21620138       0.00000000
Si      -3.18601449      -0.64531206       1.64830576       0.00000000
Si       0.09583407       1.42560862      -3.38528966       0.00000000
Si      -0.62797950       3.33333215       1.51696366       0.00000000
Si      -2.32805277      -2.57225616      -1.63227259       0.00000000
Si      -3.73764276       1.05991115       0.07920865       0.00000000
