10
Lattice="16.28999089631971 0.0 0.0 0.0 16.28999089631971 0.0 0.0 0.0 34.185847837958455" Properties=species:S:1:pos:R:3:initial_magmoms:R:1 pbc="T T T"
Si       0.79420266       1.88996580       1.18857422       0.00000000
Si      -1.38616497      -1.01542086       1.66587730       0.00000000
Si      -1.30943907       1.02025899      -1.79468964       0.00000000
Si       1.94315265      -1.35078309      -0.80965807       0.00000000
Si       0.38597526       0.42402870      -3.41318533       0.00000000
Si       1.42107444       0.78726312       3.34826637       0.00000000
Si      -3.50465992      -0.06037074      -1.29543924       0.00000000
Si       0.10158444      -1.22865696       3.52914379       0.00000000
Si      -3.32285049       0.20660607       2.12656604       0.00000000
Si       1.86856074       3.49568739      -0.63250691       0.00000000
