10
Lattice="16.28999089631971 0.0 0.0 0.0 16.28999089631971 0.0 0.0 0.0 34.185847837958455" Properties=species:S:1:pos:R:3:initial_magmoms:R:1 pbc="T T T"
Si       1.75684392      -1.10454345      -1.12317666       0.00000000
Si      -1.01985174       1.58555457      -1.43594316       0.00000000
Si      -1.55501082      -1.83624138       0.10201063       0.00000000
Si       0.68173650       1.33429761       1.88822217       0.00000000
Si       1.87051554       2.86658388       0.06109014       0.00000000
Si      -1.01727792      -2.35292760       2.28602982       0.00000000
Si      -0.23350086      -0.43258095       3.49059721       0.00000000
Si       0.60613461      -2.07827820      -2.88785111       0.00000000
Si      -1.16322003      -3.12500844      -1.76699909       0.00000000
Si      -2.72324817       2.77448022      -0.24825777       0.00000000
