10
Lattice="16.28999089631971 0.0 0.0 0.0 16.28999089631971 0.0 0.0 0.0 34.185847837958455" Properties=species:S:1:pos:R:3:initial_magmoms:R:1 pbc="T T T"
Si      -1.09426446       1.21233438       1.69100391       0.00000000
Si      -0.61776567      -2.25205992      -0.53384650       0.00000000
Si       2.30291730      -0.23320764       0.74484167       0.00000000
Si      -0.50715657       1.46605113      -1.90247768       0.00000000
Si       0.46009476      -1.94219154      -2.63514918       0.00000000
Si      -0.73546092      -0.13536990      -3.61522380       0.00000000
Si      -1.41670872       3.39731208       0.69253729       0.00000000
Si      -3.26801835       0.28966878       1.90487069       0.00000000
Si       3.37377303       1.84728600       0.39112050       0.00000000
Si       0.09935271      -3.73251141       1.18683074       0.00000000
