10
Lattice="16.28999089631971 0.0 0.0 0.0 16.28999089631971 0.0 0.0 0.0 34.185847837958455" Properties=species:S:1:pos:R:3:initial_magmoms:R:1 pbc="T T T"
Si       0.18034333      -1.59742998      -1.66198011       0.00000000
Si      -1.04485104       1.94256621      -0.80097486       0.00000000
Si      -1.75219542      -0.86521077       1.30996824       0.00000000
Si       2.35409722      -0.67476438      -1.87584689       0.00000000
Si       2.93309269      -0.99707832       0.39306910       0.00000000
Si       1.10106065       2.88201051      -1.14826908       0.00000000
Si      -0.22769999      -1.46979783       3.22929955       0.00000000
Si      -2.48322546      -2.54892888      -0.26767534       0.00000000
Si       1.80388618       2.98263384       1.37440859       0.00000000
Si      -3.44466126       1.01128320       1.24381858       0.00000000
