10
Lattice="16.28999089631971 0.0 0.0 0.0 16.28999089631971 0.0 0.0 0.0 34.185847837958455" Properties=species:S:1:pos:R:3:initial_magmoms:R:1 pbc="T T T"
Si      -1.35141188      -1.36396170       1.37033706       0.00000000
Si       1.36423863       1.35448092       1.37755028       0.00000000
Si       1.38753333      -1.41061626      -1.31207750       0.00000000
Si      -1.46655612       1.19781999      -1.49125247       0.00000000
Si       2.70801702       2.68713324       0.00837212       0.00000000
Si      -2.72042090       2.67524154       0.00217764       0.00000000
Si      -2.68918268      -2.74256811       0.00102899       0.00000000
Si       0.00504990       2.70692559       2.73168665       0.00000000
Si      -2.71220722      -0.00418653       2.73096875       0.00000000
Si       2.73105108      -2.71518462       0.03334831       0.00000000
