10
Lattice="16.28999089631971 0.0 0.0 0.0 16.28999089631971 0.0 0.0 0.0 34.185847837958455" Properties=species:S:1:pos:R:3:initial_magmoms:R:1 pbc="T T T"
Si      -1.35765747      -1.35703845       1.35854635       0.00000000
Si       1.35736425       1.35785295       1.35858054       0.00000000
Si      -1.35717854       1.35742941      -1.36063169       0.00000000
Si       1.36024758      -1.36332639      -1.35608497       0.00000000
Si       2.72528442       0.00620649      -2.69762043       0.00000000
Si      -2.69494934      -0.02117700      -2.72993975       0.00000000
Si       2.71379997      -2.71454931       0.00153836       0.00000000
Si       2.71386513       2.71459818       0.00136743       0.00000000
Si      -0.00055386      -2.71451673       2.71562271       0.00000000
Si       2.71503801       0.00079821       2.71565690       0.00000000
