10
Lattice="16.28999089631971 0.0 0.0 0.0 16.28999089631971 0.0 0.0 0.0 34.185847837958455" Properties=species:S:1:pos:R:3:initial_magmoms:R:1 pbc="T T T"
Si       0.27424215      -0.58409424      -2.26018359       0.00000000
Si       1.84797018       0.88534521       1.18650529       0.00000000
Si      -0.93696822      -1.92940389       1.07015711       0.00000000
Si      -1.89767097       1.78057845       0.02357765       0.00000000
Si       0.21791133       1.77942186      -2.71735119       0.00000000
Si      -1.95504761       0.26384913      -2.74904149       0.00000000
Si      -2.19083300      -0.45198234       2.56358722       0.00000000
Si       0.56231451       2.29599498       2.58228347       0.00000000
Si      -0.83375152       3.57316330       1.21852378       0.00000000
Si      -3.74494787       0.73959858       1.23771914       0.00000000
