10
Lattice="16.28999089631971 0.0 0.0 0.0 16.28999089631971 0.0 0.0 0.0 34.185847837958455" Properties=species:S:1:pos:R:3:initial_magmoms:R:1 pbc="T T T"
Si       1.35566910       1.35501849       1.35629009       0.00000000
Si      -1.35793606       1.35708732      -1.35731566       0.00000000
Si       1.35710425      -1.35786924      -1.35748659       0.00000000
Si      -1.35963022      -1.35782037       1.35649520       0.00000000
Si      -2.71406227       0.00052128       2.71319552       0.00000000
Si      -0.00269099       2.71397760      -2.71415272       0.00000000
Si      -0.00281631      -2.71340901      -2.71582783       0.00000000
Si       2.71453854      -2.71489140       0.00013674       0.00000000
Si       2.71444080      -0.00229689      -2.71510992       0.00000000
Si       2.71494579       2.71478075       0.00020512       0.00000000
