10
Lattice="16.28999089631971 0.0 0.0 0.0 16.28999089631971 0.0 0.0 0.0 34.185847837958455" Properties=species:S:1:pos:R:3:initial_magmoms:R:1 pbc="T T T"
Si      -1.35566910      -1.35501849      -1.35629009       0.00000000
Si      -1.35224986       1.35699981       1.36223843       0.00000000
Si       1.35997717      -1.35387819       1.35967449       0.00000000
Si       1.35927670       1.35976226      -1.35608497       0.00000000
Si       0.00143515      -2.71288773      -2.71377668       0.00000000
Si      -2.71360516       0.00206883      -2.71360575       0.00000000
Si      -2.71529932      -2.71283886       0.00020512       0.00000000
Si       2.71610338      -2.71249677       0.00133325       0.00000000
Si       2.71667353       0.00272043      -2.71353737       0.00000000
Si       2.71475131       2.71656342       0.00109395       0.00000000
