10
Lattice="16.28999089631971 0.0 0.0 0.0 16.28999089631971 0.0 0.0 0.0 34.185847837958455" Properties=species:S:1:pos:R:3:initial_magmoms:R:1 pbc="T T T"
Si       0.37781397       2.23356167       0.52369330       0.00000000
Si       2.13636834      -1.03477338       0.47928585       0.00000000
Si      -2.18818846      -0.78703506       0.79591535       0.00000000
Si       1.81991880       2.60378450      -1.51515181       0.00000000
Si       1.34045523      -2.73279411       1.94972255       0.00000000
Si      -1.79398512       3.10165577       0.86069757       0.00000000
Si      -2.16688603      -2.99745774       0.05356925       0.00000000
Si       1.12288599       1.30989912      -3.51017063       0.00000000
Si      -3.04883803       2.36138930      -0.96048612       0.00000000
Si       2.85650037      -2.37710196      -1.46893252       0.00000000
