10
Lattice="16.28999089631971 0.0 0.0 0.0 16.28999089631971 0.0 0.0 0.0 34.31052061344573" Properties=species:S:1:pos:R:3:initial_magmoms:R:1 pbc="T T T"
Si       1.35482301       1.35687555       1.35804548       0.00000000
Si      -1.35728280      -1.35647319       1.35787392       0.00000000
Si       1.35752715      -1.35753530      -1.35694754       0.00000000
Si      -1.35832536       1.35860229      -1.35674167       0.00000000
Si      -2.71466334      -0.00215028       2.71224817       0.00000000
Si      -0.00281817       2.71432125      -2.71272852       0.00000000
Si       2.71412577      -2.71456575       0.00092638       0.00000000
Si      -0.00122175      -2.71465114      -2.71434111       0.00000000
Si       0.00630423       2.71490769       2.71461560       0.00000000
Si       0.00356751      -2.71686968       2.71265990       0.00000000
