10
Lattice="16.28999089631971 0.0 0.0 0.0 16.28999089631971 0.0 0.0 0.0 34.31052061344573" Properties=species:S:1:pos:R:3:initial_magmoms:R:1 pbc="T T T"
Si       1.12420548       0.75585600       1.93168339       0.00000000
Si      -2.14376400      -0.78840342       0.59453303       0.00000000
Si       0.48974256       1.83371643      -1.58123554       0.00000000
Si       1.46189718      -2.04741191      -0.04021195       0.00000000
Si      -2.46071853      -1.19799918      -1.68492199       0.00000000
Si       1.86587289       0.49822965      -2.99630513       0.00000000
Si       3.11580459      -0.99171891      -1.56555562       0.00000000
Si       1.02281652       3.07693665       2.05235356       0.00000000
Si      -0.85579515      -2.23811405      -3.00100567       0.00000000
Si       1.26617283       3.64993740      -0.23526737       0.00000000
