10
Lattice="16.28999089631971 0.0 0.0 0.0 16.28999089631971 0.0 0.0 0.0 34.31052061344573" Properties=species:S:1:pos:R:3:initial_magmoms:R:1 pbc="T T T"
Si       0.10759545       0.16801506      -2.35476666       0.00000000
Si       0.70669278      -2.24827412       0.42483310       0.00000000
Si      -2.31186051       0.61077726       0.14269753       0.00000000
Si       1.43581689       1.72504584       0.99617221       0.00000000
Si      -1.74563640       1.58838903      -2.22744024       0.00000000
Si      -0.44758404      -2.11170691      -2.65693958       0.00000000
Si       2.63961531       0.08790084       2.31177555       0.00000000
Si      -0.84983301      -3.64548113      -0.88493744       0.00000000
Si      -3.11321448       0.69286257       2.40859989       0.00000000
Si      -0.17480799       3.06413271       2.57158529       0.00000000
