10
Lattice="16.28999089631971 0.0 0.0 0.0 16.28999089631971 0.0 0.0 0.0 34.31052061344573" Properties=species:S:1:pos:R:3:initial_magmoms:R:1 pbc="T T T"
Si       0.65267514      -1.82482209      -1.32335752       0.00000000
Si       0.78791472      -0.00840564       2.25948629       0.00000000
Si      -0.66458313       1.73956023      -1.50681598       0.00000000
Si      -2.18611800      -0.88539408       0.43944939       0.00000000
Si       2.77780338       1.31320206       0.16493076       0.00000000
Si      -0.49772466      -1.00654281      -3.21733363       0.00000000
Si      -2.51252073       0.02422323       2.54625378       0.00000000
Si       0.25948341       3.64405671      -0.66709983       0.00000000
Si       0.32521356       1.15808868      -3.52057018       0.00000000
Si       2.64042981      -1.44199080       2.19024762       0.00000000
