10
Lattice="16.28999089631971 0.0 0.0 0.0 16.28999089631971 0.0 0.0 0.0 34.31052061344573" Properties=species:S:1:pos:R:3:initial_magmoms:R:1 pbc="T T T"
Si      -1.85251509       1.43358516       0.06923867       0.00000000
Si       1.09946097       0.20264760       2.08374770       0.00000000
Si       1.18838808       0.69103809      -1.92653681       0.00000000
Si      -0.29978487      -2.35333485       0.19786888       0.00000000
Si       1.38010509      -2.14288434       2.19968302       0.00000000
Si       0.13737357       2.75519286      -2.02531685       0.00000000
Si      -2.64042981       1.44199080      -2.19024762       0.00000000
Si       2.94293511       1.54645857       1.71954132       0.00000000
Si       0.36030222      -0.57243060      -3.73250638       0.00000000
Si      -3.39633468       0.49723596       1.63946052       0.00000000
