10
Lattice="16.28999089631971 0.0 0.0 0.0 16.28999089631971 0.0 0.0 0.0 34.31052061344573" Properties=species:S:1:pos:R:3:initial_magmoms:R:1 pbc="T T T"
Si       1.36805049       1.34658027       1.37901265       0.00000000
Si      -1.35223290      -1.36370106       1.37980179       0.00000000
Si       1.24217766      -1.36936998      -1.50206740       0.00000000
Si      -1.45075482       1.26190485      -1.45191225       0.00000000
Si      -2.38110930      -0.76448970      -2.81893134       0.00000000
Si       2.69099397      -2.70480789       0.01156951       0.00000000
Si      -2.71327869       2.68478748       0.01207045       0.00000000
Si      -2.69676063      -2.73026916       0.02389386       0.00000000
Si       2.73517245       2.69496873       0.01922076       0.00000000
Si       0.00892692       2.70637173       2.73788157       0.00000000
