10
Lattice="16.28999089631971 0.0 0.0 0.0 16.28999089631971 0.0 0.0 0.0 34.31052061344573" Properties=species:S:1:pos:R:3:initial_magmoms:R:1 pbc="T T T"
Si       1.35448092      -1.35524655      -1.35917772       0.00000000
Si      -1.35236322       1.35744570      -1.35924634       0.00000000
Si      -1.35653346      -1.35700587       1.35632995       0.00000000
Si       1.35785295       1.35786924       1.35660443       0.00000000
Si      -0.00656487       2.69324199      -2.72690906       0.00000000
Si      -2.71450044       0.00037467       2.71386077       0.00000000
Si       0.00100998      -2.71448415       2.71396370       0.00000000
Si       2.71573848      -0.00021177       2.71379214       0.00000000
Si      -2.71445157       2.71513575      -0.00078914       0.00000000
Si       2.71528236      -2.71446786      -0.00322519       0.00000000
