10
Lattice="16.28999089631971 0.0 0.0 0.0 16.28999089631971 0.0 0.0 0.0 34.31052061344573" Properties=species:S:1:pos:R:3:initial_magmoms:R:1 pbc="T T T"
Si       0.38217969      -1.86908202       1.30404069       0.00000000
Si       1.28987478       1.88825535       0.48645483       0.00000000
Si      -2.11597326       0.53357895       0.86990943       0.00000000
Si      -1.33103961       1.53446913       2.95108384       0.00000000
Si      -2.91843495       1.83361869      -1.00543606       0.00000000
Si      -0.84380571      -3.50730216       0.12598830       0.00000000
Si       0.89595000       3.33930339      -1.38580270       0.00000000
Si       0.69735861       2.67260256       2.60101340       0.00000000
Si       2.63876823      -2.46663180       1.32860703       0.00000000
Si       3.59282466       1.58594553       0.60307636       0.00000000
