10
Lattice="16.28999089631971 0.0 0.0 0.0 16.28999089631971 0.0 0.0 0.0 34.31052061344573" Properties=species:S:1:pos:R:3:initial_magmoms:R:1 pbc="T T T"
Si       0.73345725       0.41467824      -2.18664501       0.00000000
Si       0.97068852       1.17299403       1.78644688       0.00000000
Si      -2.35937844       0.01889640      -0.01468491       0.00000000
Si       0.77569722      -2.22553980      -0.11511186       0.00000000
Si      -0.43253208       3.05509176       1.64422969       0.00000000
Si      -0.49252815      -1.22354190      -3.36469739       0.00000000
Si      -0.51875505      -3.08752515      -1.91912573       0.00000000
Si       0.09321138       0.17400978       3.67081603       0.00000000
Si       2.99004579      -0.18287154      -2.16207866       0.00000000
Si       3.09016413      -1.97985402      -0.56876582       0.00000000
