10
Lattice="16.28999089631971 0.0 0.0 0.0 16.28999089631971 0.0 0.0 0.0 34.31052061344573" Properties=species:S:1:pos:R:3:initial_magmoms:R:1 pbc="T T T"
Si       1.34579835       1.33579629      -1.36766272       0.00000000
Si       1.35236322      -1.35744570       1.35924634       0.00000000
Si      -1.36208835       1.35769005       1.35845720       0.00000000
Si      -1.36573731      -1.37168316      -1.38335636       0.00000000
Si      -0.04621473       2.44534077      -2.90921125       0.00000000
Si       2.70684414      -2.71269225       0.00006862       0.00000000
Si       2.71021617       0.00042354       2.71585078       0.00000000
Si      -2.71666049       2.71129131      -0.00202432       0.00000000
Si      -2.71437989      -2.71415835      -0.00329381       0.00000000
Si       2.70915732       2.71950147      -0.00325950       0.00000000
