10
Lattice="16.28999089631971 0.0 0.0 0.0 16.28999089631971 0.0 0.0 0.0 34.31052061344573" Properties=species:S:1:pos:R:3:initial_magmoms:R:1 pbc="T T T"
Si       1.36630746       1.35469269      -1.34757047       0.00000000
Si      -1.35690813       1.35327855       1.36175101       0.00000000
Si       1.35884664      -1.36212093       1.36140791       0.00000000
Si      -1.36335897      -1.38370518      -1.36440322       0.00000000
Si       2.70663237      -0.02174715      -2.68909885       0.00000000
Si       0.00193851       2.60276311      -2.79073010       0.00000000
Si      -2.71054197       2.70949356       0.00271053       0.00000000
Si       2.71893132       2.70827344       0.00583279       0.00000000
Si      -2.70915732      -2.71950147       0.00325950       0.00000000
Si       0.00184077       2.71039440       2.71914459       0.00000000
