10
Lattice="16.28999089631971 0.0 0.0 0.0 16.28999089631971 0.0 0.0 0.0 34.31052061344573" Properties=species:S:1:pos:R:3:initial_magmoms:R:1 pbc="T T T"
Si      -0.98989443      -1.68687837      -1.36923071       0.00000000
Si       0.17444961      -0.63434889       2.31349108       0.00000000
Si       1.74343725       0.94683996      -1.38154820       0.00000000
Si      -1.84073742       1.57853751       0.08176202       0.00000000
Si       2.44389096      -2.07252783      -0.00205863       0.00000000
Si       2.56342698      -1.03180860       2.23519443       0.00000000
Si      -2.15987481      -0.36131220      -2.94374138       0.00000000
Si       0.54310860       2.35054179      -2.91927797       0.00000000
Si      -2.85118983      -2.49373836      -0.03918264       0.00000000
Si       2.86080093       2.54124393       0.04151575       0.00000000
