10
Lattice="16.28999089631971 0.0 0.0 0.0 16.28999089631971 0.0 0.0 0.0 34.31052061344573" Properties=species:S:1:pos:R:3:initial_magmoms:R:1 pbc="T T T"
Si      -1.23655207      -1.19509304      -1.57585706       0.00000000
Si      -1.38693453       1.30658995       1.37000613       0.00000000
Si       1.35578738      -1.42438522       1.34246163       0.00000000
Si       0.88832954       1.87931377      -1.45117255       0.00000000
Si      -2.56087338      -2.57983657       0.00922267       0.00000000
Si       2.65217816       2.65154122       0.03221760       0.00000000
Si      -2.73538815       2.59980418      -0.09065874       0.00000000
Si      -0.00478437       0.18242682      -3.80364040       0.00000000
Si      -0.01961805       2.66734252       2.73112583       0.00000000
Si       2.69971238      -0.05145522       2.72995927       0.00000000
