10
Lattice="16.28999089631971 0.0 0.0 0.0 16.28999089631971 0.0 0.0 0.0 34.31052061344573" Properties=species:S:1:pos:R:3:initial_magmoms:R:1 pbc="T T T"
Si       1.68352263      -1.40688585      -0.76546814       0.00000000
Si       0.12948921       2.21017833      -0.71063990       0.00000000
Si      -1.94276169       0.17721891      -1.27823916       0.00000000
Si      -0.79389315      -0.69862923       2.12104326       0.00000000
Si      -2.21677578       2.48100546      -0.64345986       0.00000000
Si       2.23075260      -2.17002348       1.41836340       0.00000000
Si       2.44964133      -0.24588126       2.77791854       0.00000000
Si       0.23817609      -2.72025081       2.61291916       0.00000000
Si       1.37378457       2.14435044      -2.79747555       0.00000000
Si       0.89858898      -2.40777603      -2.84664255       0.00000000
