10
Lattice="16.28999089631971 0.0 0.0 0.0 16.28999089631971 0.0 0.0 0.0 34.31052061344573" Properties=species:S:1:pos:R:3:initial_magmoms:R:1 pbc="T T T"
Si      -1.35262386      -1.35358075      -1.35340326       0.00000000
Si       1.35399222      -1.35392098       1.35677599       0.00000000
Si      -1.35878148       1.36011237       1.35488891       0.00000000
Si       1.36801791       1.34724327      -1.38381955       0.00000000
Si      -0.16630461       2.50899720      -2.72438038       0.00000000
Si       2.71217097      -2.71275319      -0.00298502       0.00000000
Si      -0.01229895      -2.73002059      -2.69493164       0.00000000
Si       2.71226871       0.00263572       2.71338042       0.00000000
Si      -0.00213399      -2.71239481       2.71327749       0.00000000
Si      -2.71893132      -2.70827344      -0.00583279       0.00000000
