10
Lattice="16.28999089631971 0.0 0.0 0.0 16.28999089631971 0.0 0.0 0.0 34.31052061344573" Properties=species:S:1:pos:R:3:initial_magmoms:R:1 pbc="T T T"
Si      -0.93211380       0.71908507       2.02473357       0.00000000
Si       1.43402499       1.75809548      -0.58255866       0.00000000
Si       1.23618294      -1.97243574       0.61086485       0.00000000
Si      -1.84145418      -0.11092335      -1.55155692       0.00000000
Si       0.08501751      -3.25911768      -1.08822739       0.00000000
Si       2.59160868      -0.73076307       2.20493253       0.00000000
Si       0.90870507       0.36003718       3.43764160       0.00000000
Si      -2.89641901      -0.51951435       2.13339505       0.00000000
Si       1.92735135       1.47701805      -2.84420651       0.00000000
Si       0.17606232       3.62217647      -1.17486150       0.00000000
