10
Lattice="16.28999089631971 0.0 0.0 0.0 16.28999089631971 0.0 0.0 0.0 34.31052061344573" Properties=species:S:1:pos:R:3:initial_magmoms:R:1 pbc="T T T"
Si      -1.90482228       0.65508606      -1.19380092       0.00000000
Si       0.29678751      -2.25538634      -0.73537780       0.00000000
Si      -0.12237048      -0.70016049       2.28981680       0.00000000
Si       1.66438188       1.73428227      -0.00813160       0.00000000
Si       2.25370521      -2.88990399       0.39165481       0.00000000
Si      -1.01941191       1.35182565      -3.28698402       0.00000000
Si       3.56459409       0.61561539       0.85855264       0.00000000
Si       1.34118828       0.92286108      -3.36411412       0.00000000
Si      -2.74507677       2.55490731      -0.10783803       0.00000000
Si      -1.45091772      -3.44218193       0.37298988       0.00000000
