10
Lattice="16.28999089631971 0.0 0.0 0.0 16.28999089631971 0.0 0.0 0.0 34.31052061344573" Properties=species:S:1:pos:R:3:initial_magmoms:R:1 pbc="T T T"
Si      -1.15714386       1.99192491      -0.43824852       0.00000000
Si       0.63066735      -1.19705436      -1.92334593       0.00000000
Si      -1.53704295      -1.01292849       1.48914605       0.00000000
Si       1.81739385       0.47772054       1.46046244       0.00000000
Si      -0.98588709      -2.81937709      -1.82247294       0.00000000
Si      -0.32905800       3.25539360       1.36772105       0.00000000
Si       1.97661231       2.81393460       1.17568496       0.00000000
Si      -0.67870656      -3.04695491       2.14526650       0.00000000
Si      -0.69758667       2.91999879      -2.51698689       0.00000000
Si      -1.81723095       0.21102066       3.49212674       0.00000000
