10
Lattice="16.28999089631971 0.0 0.0 0.0 16.28999089631971 0.0 0.0 0.0 34.31052061344573" Properties=species:S:1:pos:R:3:initial_magmoms:R:1 pbc="T T T"
Si      -0.38138148      -2.32365447      -0.05997482       0.00000000
Si       2.28851694      -0.20831652       0.52666679       0.00000000
Si      -1.56960666       0.75256542       1.71761993       0.00000000
Si       0.38512818       0.80881479      -2.31585850       0.00000000
Si      -3.24949662       0.54211491      -0.28419420       0.00000000
Si       2.84407110       2.08005381       0.65183163       0.00000000
Si      -0.16454529       0.11647350       3.62199213       0.00000000
Si       3.06859617      -1.56981028      -1.30417793       0.00000000
Si      -2.11097223      -2.71586065      -1.63105444       0.00000000
Si      -2.96930862      -0.68183424      -2.28717489       0.00000000
