10
Lattice="16.28999089631971 0.0 0.0 0.0 16.28999089631971 0.0 0.0 0.0 34.31052061344573" Properties=species:S:1:pos:R:3:initial_magmoms:R:1 pbc="T T T"
Si       1.01617020       2.07407538      -0.24037964       0.00000000
Si      -0.88730001      -0.54936396      -2.11229407       0.00000000
Si      -1.43842329       0.74751552       1.72582015       0.00000000
Si       1.41242445      -1.61433900       1.14017355       0.00000000
Si      -1.04651847      -2.88557802      -1.82751659       0.00000000
Si       1.34320824       2.66134617       2.01862630       0.00000000
Si       0.37642932       0.91580751       3.47071696       0.00000000
Si       3.26484180       1.61888391      -0.70909593       0.00000000
Si      -3.19297032      -0.10790496      -1.92025798       0.00000000
Si      -3.28189743      -0.59629545       2.09002653       0.00000000
