10
Lattice="16.28999089631971 0.0 0.0 0.0 16.28999089631971 0.0 0.0 0.0 34.31052061344573" Properties=species:S:1:pos:R:3:initial_magmoms:R:1 pbc="T T T"
Si       1.35798327       1.35633798      -1.35495753       0.00000000
Si      -1.35764118       1.35614250       1.35677599       0.00000000
Si       1.35739683      -1.35788553       1.35722202       0.00000000
Si      -1.35809730      -1.35811359      -1.36024135       0.00000000
Si       2.70469386       0.00819387      -2.70826815       0.00000000
Si       2.71386513       2.71420722       0.00024017       0.00000000
Si       2.71458189      -0.00192222       2.71351766       0.00000000
Si       0.00058644       2.71283886       2.71533612       0.00000000
Si       0.00138465       2.71138905      -2.71698302       0.00000000
Si      -2.71510317      -0.00162900       2.71372352       0.00000000
