10
Lattice="16.28999089631971 0.0 0.0 0.0 16.28999089631971 0.0 0.0 0.0 34.31052061344573" Properties=species:S:1:pos:R:3:initial_magmoms:R:1 pbc="T T T"
Si       1.35444834      -1.35602847      -1.35814841       0.00000000
Si      -1.36233270      -1.34597754       1.36065308       0.00000000
Si      -1.35954711       1.35873261      -1.35632995       0.00000000
Si       1.34180730       1.36586763       1.37194124       0.00000000
Si       2.71981098      -0.03717378       2.69519583       0.00000000
Si       2.71093293      -2.70889668       0.00219587       0.00000000
Si      -0.00273672      -2.71199178      -2.71444404       0.00000000
Si       2.71215468       0.00203625      -2.71464991       0.00000000
Si       2.71179630       2.71652040       0.00384278       0.00000000
Si      -2.71777473      -2.71383255       0.00281346       0.00000000
