10
Lattice="16.28999089631971 0.0 0.0 0.0 16.28999089631971 0.0 0.0 0.0 34.31052061344573" Properties=species:S:1:pos:R:3:initial_magmoms:R:1 pbc="T T T"
Si       2.01443769       1.10657970      -0.74320060       0.00000000
Si      -1.01661003      -0.95478948      -1.98476180       0.00000000
Si       1.00043406      -1.67146803       1.45277688       0.00000000
Si      -1.16567982       1.97693811       0.81209617       0.00000000
Si      -0.30916791       0.59245101      -3.57097236       0.00000000
Si       3.66010236       0.22248882       0.65718408       0.00000000
Si       1.98205317       0.80254314      -3.09518810       0.00000000
Si      -0.04675230       3.81127356      -0.15518657       0.00000000
Si      -0.61349769       2.48549562       3.05144217       0.00000000
Si       3.24910566      -2.12665950       0.98406059       0.00000000
