10
Lattice="16.28999089631971 0.0 0.0 0.0 16.28999089631971 0.0 0.0 0.0 34.31052061344573" Properties=species:S:1:pos:R:3:initial_magmoms:R:1 pbc="T T T"
Si      -0.19272699       2.02038354      -1.10919113       0.00000000
Si       1.74824280      -1.54930932      -0.44885048       0.00000000
Si      -1.87421337      -1.24328538      -0.87810964       0.00000000
Si      -0.45465390       1.08292662       2.12076877       0.00000000
Si       0.78146388      -3.29484798       1.00324018       0.00000000
Si      -3.38289543      -0.64966149       1.09773141       0.00000000
Si      -2.70330921       1.57597605       1.85139673       0.00000000
Si      -2.11423023       3.00208410      -0.03986885       0.00000000
Si      -1.03338873      -3.46313997      -0.74165663       0.00000000
Si       1.42120476      -2.13658011      -2.70785642       0.00000000
