10
Lattice="16.28999089631971 0.0 0.0 0.0 16.28999089631971 0.0 0.0 0.0 34.31052061344573" Properties=species:S:1:pos:R:3:initial_magmoms:R:1 pbc="T T T"
Si      -1.35778779      -1.35695700       1.35770237       0.00000000
Si       1.35795069       1.35799956       1.35770237       0.00000000
Si       1.35912357      -1.35979146      -1.35886893       0.00000000
Si      -1.35884664       1.36212093      -1.36140791       0.00000000
Si       0.00746082       2.71681362      -2.70897838       0.00000000
Si      -2.71454931       0.00102627       2.71516457       0.00000000
Si       0.00009774      -2.71503801       2.71489008       0.00000000
Si       2.71521720       0.00055386       2.71509595       0.00000000
Si      -2.71564074      -2.71482624       0.00109794       0.00000000
Si       2.71407690       2.71647339       0.00120087       0.00000000
