10
Lattice="16.28999089631971 0.0 0.0 0.0 16.28999089631971 0.0 0.0 0.0 34.31052061344573" Properties=species:S:1:pos:R:3:initial_magmoms:R:1 pbc="T T T"
Si       1.35363384      -1.35621501       1.35904048       0.00000000
Si       1.35984033       1.33538578      -1.37508409       0.00000000
Si      -1.36166481       1.35887596       1.35876600       0.00000000
Si      -1.34392500      -1.37293000      -1.38749764       0.00000000
Si      -0.04753422       2.70299644      -2.69774167       0.00000000
Si       2.71054197      -2.70949356      -0.00271053       0.00000000
Si       2.71238274       0.00090084       2.71643406       0.00000000
Si      -2.69971238       0.05145522      -2.72995927       0.00000000
Si      -0.00254124      -2.71429911       2.71653699       0.00000000
Si       2.70984150       2.72104576      -0.00233312       0.00000000
