10
Lattice="16.28999089631971 0.0 0.0 0.0 16.28999089631971 0.0 0.0 0.0 34.31052061344573" Properties=species:S:1:pos:R:3:initial_magmoms:R:1 pbc="T T T"
Si       0.19272699      -2.02038354       1.10919113       0.00000000
Si       1.65892473       1.65095892       0.17014597       0.00000000
Si      -0.55218213      -0.50855751      -2.23934600       0.00000000
Si      -1.92150324       0.98170056       1.06932228       0.00000000
Si      -0.26192691      -0.93745692       3.22995991       0.00000000
Si       0.80541018       3.00183975      -1.62642252       0.00000000
Si       0.56674539       1.32577794      -3.20662874       0.00000000
Si      -1.68148638      -3.26366892       0.23108149       0.00000000
Si      -2.93728248      -0.52106823      -2.15538811       0.00000000
Si       0.95542479       2.96766333       1.98901630       0.00000000
