10
Lattice="16.28999089631971 0.0 0.0 0.0 16.28999089631971 0.0 0.0 0.0 34.31052061344573" Properties=species:S:1:pos:R:3:initial_magmoms:R:1 pbc="T T T"
Si       1.61668476       1.65793104       0.41567219       0.00000000
Si      -0.50487597      -1.75494125       1.54006289       0.00000000
Si       1.22605056      -1.58955214      -1.32195079       0.00000000
Si      -1.88465526       1.06456779      -1.09512381       0.00000000
Si       2.14309694       0.07369596      -2.63738257       0.00000000
Si      -3.12194592       1.17423207       0.93612877       0.00000000
Si      -0.67610016       2.65761576      -2.44864029       0.00000000
Si      -0.54307602      -2.67245269      -2.56563923       0.00000000
Si       3.38264035       1.32040224      -1.10466214       0.00000000
Si       1.21016781      -3.42113525       1.25109952       0.00000000
