10
Lattice="16.28999089631971 0.0 0.0 0.0 16.28999089631971 0.0 0.0 0.0 34.31052061344573" Properties=species:S:1:pos:R:3:initial_magmoms:R:1 pbc="T T T"
Si       0.91704638       1.66324810      -1.31543178       0.00000000
Si      -1.22605056       1.58955214       1.32195079       0.00000000
Si      -1.76912658      -1.08290056      -1.24368845       0.00000000
Si       1.82333711      -1.04185448       1.34380660       0.00000000
Si      -0.01588275      -1.83158311       2.57305031       0.00000000
Si      -1.73092653      -0.16538911       2.86201368       0.00000000
Si       2.18283624       0.21678080      -2.60845879       0.00000000
Si       2.15658979       2.90995438       0.21728865       0.00000000
Si      -0.54455841      -2.50538638      -2.61185553       0.00000000
Si       0.39063420       3.24748318       1.73762298       0.00000000
