10
Lattice="16.28999089631971 0.0 0.0 0.0 16.28999089631971 0.0 0.0 0.0 34.31052061344573" Properties=species:S:1:pos:R:3:initial_magmoms:R:1 pbc="T T T"
Si      -0.00791694       0.53177239       2.31829455       0.00000000
Si       0.50487597       1.75494125      -1.54006289       0.00000000
Si      -1.59620823      -1.62250422      -0.75181255       0.00000000
Si       1.71504378      -1.66619400      -0.28896337       0.00000000
Si       1.73092653       0.16538911      -2.86201368       0.00000000
Si      -1.70455302      -0.88359175       3.15183481       0.00000000
Si       2.78759760      -1.79718189       1.78112874       0.00000000
Si       2.11116771       0.01113747       3.18576793       0.00000000
Si      -3.81280482      -0.82862962      -0.38383201       0.00000000
Si       3.55426364      -0.87646537      -1.51820708       0.00000000
