10
Lattice="16.28999089631971 0.0 0.0 0.0 16.28999089631971 0.0 0.0 0.0 34.31052061344573" Properties=species:S:1:pos:R:3:initial_magmoms:R:1 pbc="T T T"
Si      -1.42930089      -1.79290902       0.54769915       0.00000000
Si      -0.46628496       1.66554662      -1.63849983       0.00000000
Si       2.31541173      -0.48586717      -0.28402265       0.00000000
Si      -0.78007923       1.36149376       1.83084471       0.00000000
Si       2.86164917       1.23386162       1.28091538       0.00000000
Si      -3.06859617       1.56981028       1.30417793       0.00000000
Si      -2.68346799       2.37862507      -1.01168058       0.00000000
Si      -3.44997765      -0.75384418       1.24420310       0.00000000
Si       1.37746611       3.23010338      -1.31011365       0.00000000
Si      -0.02884959       0.21215282       3.75336719       0.00000000
