10
Lattice="16.28999089631971 0.0 0.0 0.0 16.28999089631971 0.0 0.0 0.0 34.31052061344573" Properties=species:S:1:pos:R:3:initial_magmoms:R:1 pbc="T T T"
Si       1.36529748       1.33110477       1.39707715       0.00000000
Si      -1.36472733      -1.37026593       1.39021504       0.00000000
Si       1.35262386      -1.43806491      -1.42635433       0.00000000
Si      -1.02962574       1.89394056      -1.31686253       0.00000000
Si       2.72978046       2.67201612       0.02342037       0.00000000
Si       2.70107748      -2.73127914       0.03431054       0.00000000
Si      -2.70477531      -2.74330116       0.01356639       0.00000000
Si      -0.00239463       2.69959509       2.75079949       0.00000000
Si       2.71137187      -0.01470987       2.75580883       0.00000000
Si      -2.75081085       2.71787247       0.02664900       0.00000000
