10
Lattice="16.28999089631971 0.0 0.0 0.0 16.28999089631971 0.0 0.0 0.0 34.31052061344573" Properties=species:S:1:pos:R:3:initial_magmoms:R:1 pbc="T T T"
Si       1.08919827      -0.35701164       2.07400351       0.00000000
Si      -2.38480713      -0.05507649       0.58526919       0.00000000
Si       0.85788027       2.08078686      -1.05220132       0.00000000
Si       0.70195239      -1.94479794      -1.39630173       0.00000000
Si       3.34187788      -0.17316270       1.42412757       0.00000000
Si      -3.46255353      -0.81658512      -1.45912433       0.00000000
Si       0.79889418      -2.65307085       2.67354588       0.00000000
Si      -0.21773214       3.92911542       0.01115093       0.00000000
Si       1.65110553      -1.13054229      -3.45273824       0.00000000
Si      -3.21639534       2.17178280       1.12157724       0.00000000
