10
Lattice="16.28999089631971 0.0 0.0 0.0 16.28999089631971 0.0 0.0 0.0 34.31052061344573" Properties=species:S:1:pos:R:3:initial_magmoms:R:1 pbc="T T T"
Si       2.05705300      -0.97596648       0.67766747       0.00000000
Si       0.94915314       0.81425565      -2.05643651       0.00000000
Si      -1.46375424      -1.91875023      -0.44679185       0.00000000
Si      -0.70195239       1.94479794       1.39630173       0.00000000
Si       2.26777881      -2.50909983      -1.13801198       0.00000000
Si       3.45537683       0.91556316       0.79233330       0.00000000
Si      -3.36396645      -0.80008335      -1.31347608       0.00000000
Si       1.88331201      -1.12397742      -3.03342913       0.00000000
Si       2.97281327       1.89473877      -1.31505437       0.00000000
Si       0.38724588       1.58778630       3.47030524       0.00000000
