10
Lattice="16.28999089631971 0.0 0.0 0.0 16.28999089631971 0.0 0.0 0.0 34.31052061344573" Properties=species:S:1:pos:R:3:initial_magmoms:R:1 pbc="T T T"
Si      -1.02926736      -0.04368978       2.07263109       0.00000000
Si       1.71154143      -1.64952540      -0.23485564       0.00000000
Si       0.19526823       2.26668834      -0.95932269       0.00000000
Si      -2.44529353      -0.38806038      -1.01562629       0.00000000
Si      -1.13013504       1.00348029      -2.42338774       0.00000000
Si       0.26909451      -2.10015567       2.61765401       0.00000000
Si       1.39458690      -2.05912116      -2.51431067       0.00000000
Si      -0.53963883       3.64114080       0.81422342       0.00000000
Si      -0.45524034       1.86100218       3.32455406       0.00000000
Si       0.27227106      -0.37336680      -3.81732204       0.00000000
