10
Lattice="16.28999089631971 0.0 0.0 0.0 16.28999089631971 0.0 0.0 0.0 34.31052061344573" Properties=species:S:1:pos:R:3:initial_magmoms:R:1 pbc="T T T"
Si      -0.89155170       0.50236731      -2.13610559       0.00000000
Si      -1.07561241       1.84832856       1.06335225       0.00000000
Si       2.25403005       0.93884157       0.20833360       0.00000000
Si      -0.85788027      -2.08078686       1.05220132       0.00000000
Si      -3.14892216       0.90005508      -1.65599820       0.00000000
Si       0.43261353       2.28566619      -2.96449926       0.00000000
Si      -3.36683349       1.63823643       0.58756799       0.00000000
Si       3.40950419       0.18127512      -1.66351221       0.00000000
Si       3.18703166      -0.09896175       2.07956182       0.00000000
Si       2.81688539      -2.13084603      -1.65915477       0.00000000
