10
Lattice="16.28999089631971 0.0 0.0 0.0 16.28999089631971 0.0 0.0 0.0 34.31052061344573" Properties=species:S:1:pos:R:3:initial_magmoms:R:1 pbc="T T T"
Si       1.35682668      -1.35821133       1.35821703       0.00000000
Si      -1.34601012      -1.36904418      -1.36010068       0.00000000
Si      -1.35817875       1.35883221       1.35976100       0.00000000
Si       1.36606311       1.35731538      -1.35745877       0.00000000
Si       0.13589118      -2.64836304      -2.73979610       0.00000000
Si      -2.72446992      -0.01726740      -2.69194662       0.00000000
Si      -2.71217097       2.71275319       0.00298502       0.00000000
Si      -2.71313208      -2.71743264      -0.00030879       0.00000000
Si      -2.71430496       0.00035838       2.71626250       0.00000000
Si       2.71375110       2.71755223       0.00476917       0.00000000
