10
Lattice="16.28999089631971 0.0 0.0 0.0 16.28999089631971 0.0 0.0 0.0 34.31052061344573" Properties=species:S:1:pos:R:3:initial_magmoms:R:1 pbc="T T T"
Si      -1.22456817       1.42248582       1.36816708       0.00000000
Si      -1.35962856      -1.35397593      -1.35341355       0.00000000
Si       1.35881160       1.35875156      -1.35468304       0.00000000
Si       1.33783254      -1.40289480       1.38045026       0.00000000
Si      -2.47368537      -0.16263936       2.56584510       0.00000000
Si       0.54455841       2.50538638       2.61185553       0.00000000
Si      -0.00099369      -2.71119357      -2.71489008       0.00000000
Si       2.71543127       0.00501732      -2.71513026       0.00000000
Si      -2.71723716       0.00350235      -2.71440973       0.00000000
Si      -0.00156384       2.71909978      -2.71351766       0.00000000
