10
Lattice="16.28999089631971 0.0 0.0 0.0 16.28999089631971 0.0 0.0 0.0 34.31052061344573" Properties=species:S:1:pos:R:3:initial_magmoms:R:1 pbc="T T T"
Si       1.44997290       1.68249636      -0.76567401       0.00000000
Si      -0.57402702      -1.90469196      -1.25192298       0.00000000
Si       1.47064491      -1.22525235       1.40069348       0.00000000
Si      -1.83466614       1.11101058       1.05501479       0.00000000
Si      -0.08439849       1.78013862      -2.51033064       0.00000000
Si       1.04552478       0.17860356       3.16456402       0.00000000
Si      -1.35210258       0.13183497       3.16240245       0.00000000
Si      -2.92416740      -1.90770561      -0.66335998       0.00000000
Si       1.09261917       3.32314371       0.88075156       0.00000000
Si      -1.24204734       3.42313173       1.05065735       0.00000000
