10
Lattice="16.28999089631971 0.0 0.0 0.0 16.28999089631971 0.0 0.0 0.0 34.31052061344573" Properties=species:S:1:pos:R:3:initial_magmoms:R:1 pbc="T T T"
Si       0.70303405       2.15498781      -0.39676708       0.00000000
Si       1.52468536      -0.68815476       1.63084858       0.00000000
Si       0.81545134      -0.85607208      -2.02809601       0.00000000
Si      -2.25267961      -0.18384894       0.64987593       0.00000000
Si       1.22747431      -2.98416510       1.32352907       0.00000000
Si      -0.58287249      -2.74760172      -2.14276183       0.00000000
Si      -0.69889313      -3.47323977       0.09195225       0.00000000
Si       3.04622023       1.93679955      -0.31541679       0.00000000
Si      -3.34187788       0.17316270      -1.42412757       0.00000000
Si      -2.29255753       1.17307548       2.66627205       0.00000000
