10
Lattice="16.28999089631971 0.0 0.0 0.0 16.28999089631971 0.0 0.0 0.0 34.31052061344573" Properties=species:S:1:pos:R:3:initial_magmoms:R:1 pbc="T T T"
Si      -0.32640273       0.90961731       2.10680439       0.00000000
Si      -0.29721105      -2.29601034      -0.30731950       0.00000000
Si      -1.52468536       0.68815476      -1.63084858       0.00000000
Si       2.18611800       0.88539408      -0.43944939       0.00000000
Si       2.83879314      -0.93942801      -1.76280691       0.00000000
Si      -0.82165131       2.84314257      -2.02761566       0.00000000
Si       2.97403272       0.87698844       1.82003689       0.00000000
Si       1.52153487       2.62495431      -1.94626537       0.00000000
Si       1.50457698      -2.85762438      -1.68505923       0.00000000
Si      -2.55597854       0.41111073       2.60602274       0.00000000
