10
Lattice="16.28999089631971 0.0 0.0 0.0 16.28999089631971 0.0 0.0 0.0 34.31052061344573" Properties=species:S:1:pos:R:3:initial_magmoms:R:1 pbc="T T T"
Si      -1.34864258      -1.34247519       1.38006255       0.00000000
Si      -1.51143344       1.14875451      -1.41978729       0.00000000
Si       1.36573731       1.37168316       1.38335636       0.00000000
Si       1.32175431      -1.57245741      -1.44928749       0.00000000
Si       0.01601307       2.24469684      -2.95876052       0.00000000
Si      -2.69530163      -0.79175916      -2.45574978       0.00000000
Si       2.71153566       2.70747945       0.01569364       0.00000000
Si      -2.69359127      -2.72797227       0.01196409       0.00000000
Si      -2.70352817       2.72450250       0.01326445       0.00000000
Si       2.72805372      -2.70757719       0.02751705       0.00000000
