10
Lattice="16.28999089631971 0.0 0.0 0.0 16.28999089631971 0.0 0.0 0.0 34.31052061344573" Properties=species:S:1:pos:R:3:initial_magmoms:R:1 pbc="T T T"
Si       0.70306011       1.84036275       1.34754645       0.00000000
Si      -1.32831103       1.26247500      -1.54452326       0.00000000
Si      -1.90362497      -0.99494433       1.16220091       0.00000000
Si       1.38590433      -1.44484155      -1.50335061       0.00000000
Si       2.56435551       2.64722274       0.01749838       0.00000000
Si      -2.71076093       2.57758299      -0.16647474       0.00000000
Si      -3.64781060       0.74785761       1.09522674       0.00000000
Si      -0.93954204       3.61709676       1.05120632       0.00000000
Si       0.02169828       2.62795167      -2.90555375       0.00000000
Si      -2.68973054      -0.08954613      -2.90606841       0.00000000
