10
Lattice="16.28999089631971 0.0 0.0 0.0 16.28999089631971 0.0 0.0 0.0 34.31052061344573" Properties=species:S:1:pos:R:3:initial_magmoms:R:1 pbc="T T T"
Si       1.79255160      -1.59539373       0.36664243       0.00000000
Si      -2.39071130      -0.58845996       0.51678535       0.00000000
Si       0.38797893       1.47602061       2.10182936       0.00000000
Si      -1.24243830      -0.93164139      -2.15109929       0.00000000
Si      -1.29169437       2.90857950       1.26798031       0.00000000
Si      -3.28216526       1.57745844       0.40942767       0.00000000
Si       3.52750176      -0.73577043      -1.17407236       0.00000000
Si      -2.32333577      -1.56043539       2.60484009       0.00000000
Si      -1.13946758       0.38007828       3.64080258       0.00000000
Si       0.66974706      -3.79991943      -0.22490559       0.00000000
