10
Lattice="16.28999089631971 0.0 0.0 0.0 16.28999089631971 0.0 0.0 0.0 34.31052061344573" Properties=species:S:1:pos:R:3:initial_magmoms:R:1 pbc="T T T"
Si      -1.30324887       1.33638273       1.35276165       0.00000000
Si       1.34675946       1.36744776      -1.34960508       0.00000000
Si      -1.37267685      -1.34483724      -1.34854146       0.00000000
Si       1.16998038      -1.32556617       1.57451067       0.00000000
Si      -2.33391717      -0.35569215       2.60821861       0.00000000
Si       0.31913739       1.93984971       3.02550340       0.00000000
Si       2.15987481       0.36131220       2.94374138       0.00000000
Si      -0.69131502      -2.13242616       2.90455875       0.00000000
Si       2.67735924      -2.68599294       0.03334984       0.00000000
Si       2.69755884       0.01260846      -2.70552330       0.00000000
