10
Lattice="16.28999089631971 0.0 0.0 0.0 16.28999089631971 0.0 0.0 0.0 34.31052061344573" Properties=species:S:1:pos:R:3:initial_magmoms:R:1 pbc="T T T"
Si       1.35486048      -1.35754344       1.35650150       0.00000000
Si       1.35590304       1.35670439      -1.35694754       0.00000000
Si      -1.35661967       1.35373424       1.36044721       0.00000000
Si      -1.35930832      -1.35786924      -1.35670736       0.00000000
Si       2.71227360      -2.71415835       0.00054897       0.00000000
Si       2.71333245      -0.00112401      -2.71406663       0.00000000
Si       2.71344648       2.71513805       0.00065190       0.00000000
Si      -0.00272206       2.71486275      -2.71379214       0.00000000
Si      -0.00186195      -2.71531494      -2.71403232       0.00000000
Si      -2.71543127      -0.00501732       2.71513026       0.00000000
