10
Lattice="16.28999089631971 0.0 0.0 0.0 16.28999089631971 0.0 0.0 0.0 34.31052061344573" Properties=species:S:1:pos:R:3:initial_magmoms:R:1 pbc="T T T"
Si      -1.82596239      -1.13658588       0.89420129       0.00000000
Si       1.94276169      -0.17721891       1.27823916       0.00000000
Si      -0.43098453       0.90220536      -2.14468322       0.00000000
Si      -0.27401409       2.30378655       0.63477930       0.00000000
Si       2.07225090       2.03295942       0.56759926       0.00000000
Si      -2.14907291       0.27212445       2.77181127       0.00000000
Si      -2.71176698       1.44173016      -1.73796608       0.00000000
Si      -3.47005412      -0.44211060      -0.60362533       0.00000000
Si       1.14886854      -0.87584814       3.39928242       0.00000000
Si      -0.33853878      -1.14534990      -3.54173978       0.00000000
