10
Lattice="16.28999089631971 0.0 0.0 0.0 16.28999089631971 0.0 0.0 0.0 34.31052061344573" Properties=species:S:1:pos:R:3:initial_magmoms:R:1 pbc="T T T"
Si      -0.75828714      -1.88384076       1.13434076       0.00000000
Si      -1.07255382       0.13098789      -2.07009211       0.00000000
Si       2.28078245      -0.53952480      -0.40671714       0.00000000
Si      -0.67642989       1.80831936       1.40463919       0.00000000
Si       2.43775289       0.86205639       2.37274538       0.00000000
Si       0.76666604       0.92071652      -3.29933582       0.00000000
Si       2.71176698      -1.44173016       1.73796608       0.00000000
Si      -2.79551454       2.32895428       0.53716581       0.00000000
Si      -2.78759760       1.79718189      -1.78112874       0.00000000
Si       2.90752391       1.31788611      -2.04000176       0.00000000
