10
Lattice="16.28999089631971 0.0 0.0 0.0 16.28999089631971 0.0 0.0 0.0 34.25627252547053" Properties=species:S:1:pos:R:3:initial_magmoms:R:1 pbc="T T T"
Si       1.35846545      -1.35610992       1.35524741       0.00000000
Si      -1.35723904      -1.35659862      -1.35767961       0.00000000
Si       1.35704822       1.35881406      -1.35781663       0.00000000
Si      -1.35683446       1.36137159       1.35857027       0.00000000
Si       0.02104016      -2.70958086       2.70360931       0.00000000
Si       2.71379345      -2.71187123       0.00099343       0.00000000
Si      -0.01818941       2.71147050       2.71714054       0.00000000
Si      -0.00027693      -2.71351652      -2.71529070       0.00000000
Si      -2.71479107      -2.71438152      -0.00017128       0.00000000
Si       2.71449392       0.00144981      -2.71498240       0.00000000
