10
Lattice="16.28999089631971 0.0 0.0 0.0 16.28999089631971 0.0 0.0 0.0 34.25627252547053" Properties=species:S:1:pos:R:3:initial_magmoms:R:1 pbc="T T T"
Si       1.32618519      -1.21209817      -1.53540125       0.00000000
Si       1.27645182       1.57622040       1.28711165       0.00000000
Si      -0.62457489      -1.87278799       1.49532139       0.00000000
Si      -1.40978547       1.48864536      -1.52135617       0.00000000
Si       1.06554519      -0.78923421       3.20097641       0.00000000
Si      -2.68079643      -2.50750357      -0.22794136       0.00000000
Si       2.74520709      -2.45653330       0.07680261       0.00000000
Si      -0.30726198       2.32034760       2.97690600       0.00000000
Si       2.59595811       2.82155832      -0.21262880       0.00000000
Si      -0.04869081      -2.57049115      -2.91795092       0.00000000
