10
Lattice="16.28999089631971 0.0 0.0 0.0 16.28999089631971 0.0 0.0 0.0 34.25627252547053" Properties=species:S:1:pos:R:3:initial_magmoms:R:1 pbc="T T T"
Si      -1.30670235       1.63957058      -1.06105438       0.00000000
Si      -1.53401301      -0.70810187       1.65865539       0.00000000
Si       1.56129876       1.48457123       1.04084317       0.00000000
Si       1.04011650      -1.70198802      -1.39190164       0.00000000
Si       0.39698730       2.77384328      -2.15259686       0.00000000
Si      -0.16972551       0.10242989       3.54127841       0.00000000
Si       3.11533218      -0.09763900       1.75241486       0.00000000
Si       0.55289889       2.26737089       2.99290369       0.00000000
Si       1.87496271       3.30510905      -0.39011065       0.00000000
Si       1.67221737      -1.38493575       3.15359995       0.00000000
