10
Lattice="16.28999089631971 0.0 0.0 0.0 16.28999089631971 0.0 0.0 0.0 34.25627252547053" Properties=species:S:1:pos:R:3:initial_magmoms:R:1 pbc="T T T"
Si      -0.60474996      -0.21577734       2.30298198       0.00000000
Si       1.21371903      -1.74637501      -1.20821941       0.00000000
Si      -2.29126085       0.06859882      -0.89933043       0.00000000
Si       1.13573880       2.21364973      -0.64854011       0.00000000
Si       2.85606054      -0.42840256       2.02728734       0.00000000
Si      -1.85755589       2.96696449       0.93231923       0.00000000
Si       1.31022099       0.83079163       3.28240361       0.00000000
Si      -0.38119903       2.52801415      -2.65729480       0.00000000
Si      -2.32099010       1.34233021       2.57576483       0.00000000
Si       2.48254713      -2.60981017       1.11171943       0.00000000
