10
Lattice="16.28999089631971 0.0 0.0 0.0 16.28999089631971 0.0 0.0 0.0 34.25627252547053" Properties=species:S:1:pos:R:3:initial_magmoms:R:1 pbc="T T T"
Si      -0.66984480       0.10301796      -2.25433804       0.00000000
Si      -1.80877644       0.48084822       1.48209846       0.00000000
Si       0.91926099      -2.20491666      -0.43995355       0.00000000
Si       0.46099071       2.24849241       0.97513960       0.00000000
Si      -2.21346891      -1.83857085       1.65320864       0.00000000
Si       1.69464870       1.20238119       2.75300688       0.00000000
Si      -1.45240011      -3.39555276      -0.01976588       0.00000000
Si       1.06862400      -1.07906589       3.43833825       0.00000000
Si      -2.49805521       1.87323597      -2.19182031       0.00000000
Si      -3.40684499       1.73293020       0.12822130       0.00000000
