10
Lattice="16.28999089631971 0.0 0.0 0.0 16.28999089631971 0.0 0.0 0.0 34.25627252547053" Properties=species:S:1:pos:R:3:initial_magmoms:R:1 pbc="T T T"
Si      -0.35554554       2.11198221      -0.86829422       0.00000000
Si      -1.70368965      -1.13427270       1.09154248       0.00000000
Si       0.55755783      -1.31242014      -1.85723911       0.00000000
Si       1.47797541       0.53126577       1.76248621       0.00000000
Si       2.79805185      -1.51110927      -1.42167036       0.00000000
Si      -0.39698730      -2.77384328       2.15259686       0.00000000
Si       1.16431146      -1.28927205       3.19344002       0.00000000
Si       0.48267270       2.46431862       2.67664961       0.00000000
Si      -0.52624845       1.86549822      -3.15890968       0.00000000
Si      -2.68514586       0.45467019       2.57131151       0.00000000
