10
Lattice="16.28999089631971 0.0 0.0 0.0 16.28999089631971 0.0 0.0 0.0 34.25627252547053" Properties=species:S:1:pos:R:3:initial_magmoms:R:1 pbc="T T T"
Si      -1.35207000       1.35627282      -1.35976924       0.00000000
Si      -1.35327546      -1.33835382       1.37891851       0.00000000
Si       1.36244673      -1.35742941      -1.35833048       0.00000000
Si       1.35513252       1.36661697       1.37199874       0.00000000
Si       2.66584221      -0.06452469       2.74488814       0.00000000
Si      -2.70774009      -2.71704168       0.00455609       0.00000000
Si       0.02854008      -2.61663012       2.80545326       0.00000000
Si      -2.70992295      -0.00037467      -2.71566752       0.00000000
Si      -2.71034649       2.71689507       0.00003426       0.00000000
Si       0.00451233       2.71476108      -2.71601009       0.00000000
