10
Lattice="16.28999089631971 0.0 0.0 0.0 16.28999089631971 0.0 0.0 0.0 34.25627252547053" Properties=species:S:1:pos:R:3:initial_magmoms:R:1 pbc="T T T"
Si       1.07541693       1.54438974      -1.45558409       0.00000000
Si      -1.63132947      -1.19332395      -1.37737698       0.00000000
Si       1.67295042      -1.30365612       1.48086523       0.00000000
Si       2.39785542       0.19811898      -2.95282383       0.00000000
Si       2.68315848      -2.75939568      -0.08670267       0.00000000
Si       2.09495916       3.25461168      -0.16439594       0.00000000
Si      -0.31055256      -2.50685181      -2.94590406       0.00000000
Si       0.33379839      -2.68697034       2.98649776       0.00000000
Si      -2.62524753      -3.06222678      -0.18046214       0.00000000
Si      -3.29712206      -0.78516171       2.36848001       0.00000000
