10
Lattice="16.28999089631971 0.0 0.0 0.0 16.28999089631971 0.0 0.0 0.0 34.25627252547053" Properties=species:S:1:pos:R:3:initial_magmoms:R:1 pbc="T T T"
Si       1.90210185       0.80117478      -1.24384595       0.00000000
Si      -0.41332617       1.89617229       1.42917249       0.00000000
Si       0.42722154      -2.12587758       1.13597289       0.00000000
Si      -1.66280175      -0.64791846      -1.80366227       0.00000000
Si      -3.00195378      -2.03123268      -0.29802974       0.00000000
Si      -1.25618706       3.49052346      -0.14665118       0.00000000
Si       3.79403874       0.10252926       0.06077066       0.00000000
Si       1.58249205       1.95932862       2.84125109       0.00000000
Si      -1.76829579      -3.07734390       1.47983754       0.00000000
Si       1.87550028      -3.39882705      -0.18453864       0.00000000
