10
Lattice="16.28999089631971 0.0 0.0 0.0 16.28999089631971 0.0 0.0 0.0 34.25627252547053" Properties=species:S:1:pos:R:3:initial_magmoms:R:1 pbc="T T T"
Si       1.61446932       1.59129747      -0.55039584       0.00000000
Si       0.84286089      -1.59435117       1.57582367       0.00000000
Si      -2.31234921       0.30072969       0.61397552       0.00000000
Si       0.01539405       0.41982588      -3.30227226       0.00000000
Si       0.08531073       3.20524388      -1.34240130       0.00000000
Si      -1.93883580       2.48213729       1.52954342       0.00000000
Si      -0.17202240       1.98816911       2.95433111       0.00000000
Si      -0.89943606      -1.56898764       3.21276057       0.00000000
Si       1.25618706      -3.49052346       0.14665118       0.00000000
Si       3.10187664       1.77475545       1.37412263       0.00000000
