10
Lattice="16.28999089631971 0.0 0.0 0.0 16.28999089631971 0.0 0.0 0.0 34.25627252547053" Properties=species:S:1:pos:R:3:initial_magmoms:R:1 pbc="T T T"
Si      -1.35819504      -0.60986502      -1.82901192       0.00000000
Si       0.25446609      -2.03489793       1.27330636       0.00000000
Si      -1.04011650       1.70198802       1.39190164       0.00000000
Si       2.06229771       0.93794792      -0.91464299       0.00000000
Si      -0.20326662       0.88882217      -3.27709389       0.00000000
Si       3.38638149       1.39583701       0.99452866       0.00000000
Si      -0.24136893      -1.62186498       3.51339379       0.00000000
Si      -3.60079047      -1.12932054      -1.00706646       0.00000000
Si       2.49479721      -2.61904104       1.68260053       0.00000000
Si       0.52118226       3.18655925       2.43274481       0.00000000
