10
Lattice="16.28999089631971 0.0 0.0 0.0 16.28999089631971 0.0 0.0 0.0 34.25627252547053" Properties=species:S:1:pos:R:3:initial_magmoms:R:1 pbc="T T T"
Si      -1.35654975       1.35690813      -1.35740556       0.00000000
Si       1.35685926       1.35661491       1.35891283       0.00000000
Si      -1.35835794      -1.35733819       1.35723428       0.00000000
Si       1.35827649      -1.35809078      -1.35740556       0.00000000
Si      -2.71500543      -0.00123804       2.71241317       0.00000000
Si      -2.71388142       2.71441899      -0.00023979       0.00000000
Si      -2.71352304       0.00084708      -2.71556475       0.00000000
Si       2.71388142      -0.00200367      -2.71525645       0.00000000
Si      -2.71427238      -2.71527232       0.00006851       0.00000000
Si       0.00032580       2.71572219      -2.71484537       0.00000000
