10
Lattice="16.28999089631971 0.0 0.0 0.0 16.28999089631971 0.0 0.0 0.0 34.25627252547053" Properties=species:S:1:pos:R:3:initial_magmoms:R:1 pbc="T T T"
Si      -2.24049402       0.19868913      -0.43556875       0.00000000
Si       1.23494490       1.79717796       0.81790322       0.00000000
Si       1.16695044      -0.07680735      -2.04414144       0.00000000
Si      -0.09262494      -2.02677411       1.26772259       0.00000000
Si      -2.35818927      -2.07589986      -1.09472831       0.00000000
Si       3.25536102       0.69843375       0.58742689       0.00000000
Si      -2.79805185       1.51110927       1.42167036       0.00000000
Si       0.96492186      -3.32644148      -0.48623380       0.00000000
Si      -2.15174610       1.48413303      -2.40616193       0.00000000
Si       0.91570977      -2.28931352      -2.67493679       0.00000000
