10
Lattice="16.28999089631971 0.0 0.0 0.0 16.28999089631971 0.0 0.0 0.0 34.25627252547053" Properties=species:S:1:pos:R:3:initial_magmoms:R:1 pbc="T T T"
Si       0.70843581      -2.17161568       0.60315053       0.00000000
Si      -1.32408378      -0.45788909      -1.90917165       0.00000000
Si      -1.31116581       0.20851200       2.14978784       0.00000000
Si       1.96079472       0.09190981      -1.62960605       0.00000000
Si       1.07786043       2.26414221       0.52679325       0.00000000
Si       1.45327977      -1.58592502       2.79229885       0.00000000
Si      -2.86519923       1.79072223       1.43821615       0.00000000
Si       0.48097854       0.41047542       3.65542037       0.00000000
Si      -1.23145884       1.56888501      -3.17689423       0.00000000
Si      -3.38638149      -1.39583701      -0.99452866       0.00000000
