10
Lattice="16.28999089631971 0.0 0.0 0.0 16.28999089631971 0.0 0.0 0.0 34.25627252547053" Properties=species:S:1:pos:R:3:initial_magmoms:R:1 pbc="T T T"
Si      -1.55403342       1.58221023      -0.71157169       0.00000000
Si       1.79214435       0.20196342       1.50563253       0.00000000
Si      -1.44311481      -1.28729674       1.40118510       0.00000000
Si       1.31116581      -0.20851200      -2.14978784       0.00000000
Si       2.76444558      -1.79443702       0.64251101       0.00000000
Si       2.42318637       2.32408941       0.74329302       0.00000000
Si       2.01960162      -2.38012768      -1.54663731       0.00000000
Si       2.38902624       2.05563021      -1.62299459       0.00000000
Si      -3.11533218       0.09763900      -1.75241486       0.00000000
Si      -2.56243329       2.36500989       1.24048883       0.00000000
