10
Lattice="16.28999089631971 0.0 0.0 0.0 16.28999089631971 0.0 0.0 0.0 34.25627252547053" Properties=species:S:1:pos:R:3:initial_magmoms:R:1 pbc="T T T"
Si      -1.35710361       1.35769005      -1.35593254       0.00000000
Si       1.35772263       1.35643572       1.35757684       0.00000000
Si      -1.35687555      -1.35881406       1.35743981       0.00000000
Si       1.35711990      -1.35808101      -1.36048862       0.00000000
Si      -0.00666261       2.69224830      -2.72166922       0.00000000
Si      -2.71526607       2.71208952       0.00075364       0.00000000
Si       0.00063531       2.71357191       2.71470835       0.00000000
Si      -2.71384884      -2.71487511      -0.00071938       0.00000000
Si      -2.71420722      -0.00130320       2.71460558       0.00000000
Si       2.71454931       2.71505430       0.00006851       0.00000000
