10
Lattice="16.28999089631971 0.0 0.0 0.0 16.28999089631971 0.0 0.0 0.0 34.25627252547053" Properties=species:S:1:pos:R:3:initial_magmoms:R:1 pbc="T T T"
Si       2.12879349      -0.82160244       0.03206389       0.00000000
Si      -0.53307396       1.93593618      -1.20092282       0.00000000
Si      -1.43047377      -1.83611106      -0.42255136       0.00000000
Si       0.23604210       0.22893966       2.36101213       0.00000000
Si       1.42423470       3.08586357      -0.81536825       0.00000000
Si      -0.31164399      -3.47744259       0.84188262       0.00000000
Si       1.92652056      -2.82968703       1.11726895       0.00000000
Si      -1.98135270       3.20888565       0.11958871       0.00000000
Si       1.74547350       3.06739071       1.50220690       0.00000000
Si       2.43245538       1.17576333       2.80487091       0.00000000
