10
Lattice="16.28999089631971 0.0 0.0 0.0 16.28999089631971 0.0 0.0 0.0 34.25627252547053" Properties=species:S:1:pos:R:3:initial_magmoms:R:1 pbc="T T T"
Si       1.14056064       1.94430924       0.60753533       0.00000000
Si      -0.32123880       0.01847286      -2.31757516       0.00000000
Si       0.68698188      -1.89162738       1.30266400       0.00000000
Si      -2.31909327       0.54636660       0.56916829       0.00000000
Si      -1.50943140      -2.83845105       0.85880523       0.00000000
Si      -0.36000900       2.36990178      -2.45782041       0.00000000
Si      -0.34086825       3.52673613      -0.37274271       0.00000000
Si      -2.64691323      -1.22507316       2.06370178       0.00000000
Si       1.56727719       1.64586015       2.88218736       0.00000000
Si       1.67956416      -0.74746665       3.18734240       0.00000000
