10
Lattice="16.28999089631971 0.0 0.0 0.0 16.28999089631971 0.0 0.0 0.0 34.25627252547053" Properties=species:S:1:pos:R:3:initial_magmoms:R:1 pbc="T T T"
Si      -0.28823526      -1.77082074      -1.48870992       0.00000000
Si       1.19060352       1.96532334      -0.62161467       0.00000000
Si       1.80160884      -1.13318127       1.10205916       0.00000000
Si      -1.88165790       0.72715302       1.40786508       0.00000000
Si      -0.27833094      -0.15555321       3.37923214       0.00000000
Si      -2.12187024      -0.78889212      -2.55161414       0.00000000
Si      -0.60517350       3.04596936      -1.55424221       0.00000000
Si      -2.44377693       2.57983101      -0.18906047       0.00000000
Si      -0.95575059      -3.56744484       0.00620039       0.00000000
Si      -2.19085839       1.58719986      -2.60358094       0.00000000
