10
Lattice="16.28999089631971 0.0 0.0 0.0 16.28999089631971 0.0 0.0 0.0 34.25627252547053" Properties=species:S:1:pos:R:3:initial_magmoms:R:1 pbc="T T T"
Si       1.35725022      -1.35668007      -1.36302359       0.00000000
Si      -1.35949824       1.35971068      -1.36295508       0.00000000
Si      -1.37163429      -1.33823979       1.38189881       0.00000000
Si       1.35884664       1.36580803       1.38494762       0.00000000
Si      -2.71601541      -2.71334385      -0.00078789       0.00000000
Si      -2.71614573       2.71581083      -0.00777618       0.00000000
Si       2.71640637       2.71682081      -0.00253497       0.00000000
Si       2.71894761      -2.71474479      -0.00647444       0.00000000
Si      -0.00030951      -2.71337643      -2.72042915       0.00000000
Si       2.71490769       0.00108157      -2.72060043       0.00000000
