10
Lattice="16.28999089631971 0.0 0.0 0.0 16.28999089631971 0.0 0.0 0.0 34.25627252547053" Properties=species:S:1:pos:R:3:initial_magmoms:R:1 pbc="T T T"
Si      -1.16944281      -1.54750113       1.30838480       0.00000000
Si      -1.32892191       1.40949225      -1.35504187       0.00000000
Si       1.38290697      -1.33138170      -1.38563274       0.00000000
Si       1.72990026       0.98373681       1.34442242       0.00000000
Si       3.34803483      -0.91828359       1.49271791       0.00000000
Si       2.67488316      -2.71437012       0.01120181       0.00000000
Si      -2.67330303       0.03438819      -2.73772857       0.00000000
Si       2.77560423       2.63884968       0.04552661       0.00000000
Si       0.04499298      -2.68108965      -2.74358640       0.00000000
Si      -2.59076160       2.86126293       0.25466127       0.00000000
