10
Lattice="16.28999089631971 0.0 0.0 0.0 16.28999089631971 0.0 0.0 0.0 34.25627252547053" Properties=species:S:1:pos:R:3:initial_magmoms:R:1 pbc="T T T"
Si       0.33360291       0.53585955      -2.24101234       0.00000000
Si       1.32967125      -1.10574891       1.61391667       0.00000000
Si      -1.92696039       0.96918237       0.97969569       0.00000000
Si       2.49701265       0.80784946      -0.59612799       0.00000000
Si       2.19393720       2.25234404       1.33143929       0.00000000
Si       0.04052952      -3.03673293       1.89807261       0.00000000
Si      -3.41436771       0.78572439      -0.94482278       0.00000000
Si      -1.87774830      -0.06794559       3.16839867       0.00000000
Si       3.54338451      -1.27604457       0.64350444       0.00000000
Si       0.48456234      -0.20450466       3.83307350       0.00000000
