10
Lattice="16.28999089631971 0.0 0.0 0.0 16.28999089631971 0.0 0.0 0.0 34.25627252547053" Properties=species:S:1:pos:R:3:initial_magmoms:R:1 pbc="T T T"
Si      -0.13497894       1.98602534       1.36884716       0.00000000
Si       0.17278803      -1.23818661       2.08754416       0.00000000
Si      -2.36231064       0.13655907      -0.66467483       0.00000000
Si       0.84510891      -0.90124425      -2.21915683       0.00000000
Si       2.32681473       0.93289541      -0.67104650       0.00000000
Si      -0.44403282      -2.83222827      -1.93500089       0.00000000
Si       2.43384003      -0.76422906       2.50201103       0.00000000
Si      -2.67472026      -2.13226326      -1.23959817       0.00000000
Si      -3.41985744       1.43622644       1.08928156       0.00000000
Si      -0.48456234       0.20450466      -3.83307350       0.00000000
