10
Lattice="16.28999089631971 0.0 0.0 0.0 16.28999089631971 0.0 0.0 0.0 34.25627252547053" Properties=species:S:1:pos:R:3:initial_magmoms:R:1 pbc="T T T"
Si      -2.24033112       0.58414311      -0.40929417       0.00000000
Si       0.17322786      -1.03975812       2.12676761       0.00000000
Si       0.68119893      -1.92033036      -1.23644659       0.00000000
Si       1.60002009       1.84326237      -0.08492135       0.00000000
Si      -2.73616614       0.99717606       1.83079325       0.00000000
Si       2.96836380      -1.44593298      -1.01395198       0.00000000
Si       3.16014597       0.88257591      -1.59898093       0.00000000
Si       1.75891275       0.41901138       3.17610634       0.00000000
Si      -0.22716405      -1.77960105      -3.44793001       0.00000000
Si      -2.10756762      -0.74640780       3.22968318       0.00000000
