10
Lattice="16.28999089631971 0.0 0.0 0.0 16.28999089631971 0.0 0.0 0.0 34.25627252547053" Properties=species:S:1:pos:R:3:initial_magmoms:R:1 pbc="T T T"
Si       1.35769587       1.35666378       1.35829622       0.00000000
Si      -1.35776635       1.35581670      -1.36004329       0.00000000
Si      -1.35794554      -1.35834165       1.35809068       0.00000000
Si       1.35915056      -1.36265850      -1.35528167       0.00000000
Si       2.71337247      -2.71448415       0.00219240       0.00000000
Si       2.71347021       2.71477737       0.00143876       0.00000000
Si       2.71369827       0.00011403       2.71553050       0.00000000
Si      -0.00109852       2.71464705       2.71577029       0.00000000
Si      -0.00058899      -2.71529865       2.71566752       0.00000000
Si      -2.71597768       0.00006516       2.71549624       0.00000000
