10
Lattice="16.28999089631971 0.0 0.0 0.0 16.28999089631971 0.0 0.0 0.0 34.25627252547053" Properties=species:S:1:pos:R:3:initial_magmoms:R:1 pbc="T T T"
Si       1.35291064      -1.35872653       1.35887858       0.00000000
Si      -1.36291914       1.35514718       1.35853602       0.00000000
Si       1.35860700       1.35695537      -1.36902872       0.00000000
Si      -1.38176667      -1.36269781      -1.35461367       0.00000000
Si       2.71396843       2.70936746       0.00250071       0.00000000
Si       2.71119098      -0.00019059       2.71583880       0.00000000
Si       2.71210648      -2.71529118      -0.00092492       0.00000000
Si      -0.00312768       2.71368431       2.71587306       0.00000000
Si      -2.71966437      -2.71247301       0.00537824       0.00000000
Si      -0.00395847      -2.71569843       2.71645542       0.00000000
