10
Lattice="16.28999089631971 0.0 0.0 0.0 16.28999089631971 0.0 0.0 0.0 34.25627252547053" Properties=species:S:1:pos:R:3:initial_magmoms:R:1 pbc="T T T"
Si       1.35679410      -1.35688198      -1.35692597       0.00000000
Si      -1.35777150       1.35787651      -1.35699448       0.00000000
Si       1.35742941       1.35776085       1.35757684       0.00000000
Si      -1.35765747      -1.35776164       1.35757684       0.00000000
Si       2.71366321       0.00008992      -2.71450281       0.00000000
Si      -0.00040725      -2.71466977      -2.71357789       0.00000000
Si      -0.00216657       2.71396363      -2.71484537       0.00000000
Si       2.71431099      -2.71450687       0.00020554       0.00000000
Si      -2.71521720      -2.71445800       0.00017128       0.00000000
Si      -2.71596654      -0.00106832      -2.71385194       0.00000000
