10
Lattice="16.28999089631971 0.0 0.0 0.0 16.28999089631971 0.0 0.0 0.0 34.25627252547053" Properties=species:S:1:pos:R:3:initial_magmoms:R:1 pbc="T T T"
Si       1.95133023       1.19495295       0.35215468       0.00000000
Si      -1.63149237       1.57710006       0.55443808       0.00000000
Si       0.30307545      -1.44449457      -1.92756728       0.00000000
Si       0.61743987      -1.52395328       1.83058771       0.00000000
Si      -2.19393720      -2.25234404      -1.33143929       0.00000000
Si      -0.86426595      -3.35809295       0.28247738       0.00000000
Si       3.66757037      -0.36315460       0.07937183       0.00000000
Si       1.54342863       2.27905245       2.46350696       0.00000000
Si       1.98105948      -0.07877844      -3.12294057       0.00000000
Si       2.70122818      -2.41745948       0.86058656       0.00000000
