10
Lattice="16.28999089631971 0.0 0.0 0.0 16.28999089631971 0.0 0.0 0.0 34.25627252547053" Properties=species:S:1:pos:R:3:initial_magmoms:R:1 pbc="T T T"
Si       1.06305282       0.22786061       2.15136363       0.00000000
Si      -0.61743987       1.52395328      -1.83058771       0.00000000
Si       2.08378831      -0.89350619      -0.97000115       0.00000000
Si      -2.32681473      -0.93289541       0.67104650       0.00000000
Si      -1.48170582      -1.83413966      -1.54811033       0.00000000
Si       0.73200744      -2.00443532      -2.51852256       0.00000000
Si      -2.46179367       1.05312993       2.03989366       0.00000000
Si       1.33389036       2.71890623      -1.47843304       0.00000000
Si       0.10702530      -1.69712447       3.17305753       0.00000000
Si      -0.49842513       1.59670442       3.22920359       0.00000000
