10
Lattice="16.28999089631971 0.0 0.0 0.0 16.28999089631971 0.0 0.0 0.0 34.25627252547053" Properties=species:S:1:pos:R:3:initial_magmoms:R:1 pbc="T T T"
Si       0.54323892      -0.48422025       2.36584227       0.00000000
Si      -2.19137967       1.19920464       0.27065896       0.00000000
Si       1.16367615       1.51611030      -1.70705953       0.00000000
Si       0.88513344      -2.47660128      -0.94345253       0.00000000
Si      -2.76926742      -1.16941023      -0.21780150       0.00000000
Si      -1.32462135      -2.99591738       0.63507739       0.00000000
Si       3.09443767      -1.64913118      -1.07742889       0.00000000
Si      -0.14954220       1.18270287      -3.63079010       0.00000000
Si       1.05596667       3.66656949      -0.77069805       0.00000000
Si       3.20840414       0.38009457      -2.28314758       0.00000000
