10
Lattice="16.28999089631971 0.0 0.0 0.0 16.28999089631971 0.0 0.0 0.0 34.25627252547053" Properties=species:S:1:pos:R:3:initial_magmoms:R:1 pbc="T T T"
Si      -1.69031556       1.48162437       0.53539158       0.00000000
Si      -0.46343421      -1.62463428       1.64344559       0.00000000
Si       2.23222589       0.80366715       0.09211517       0.00000000
Si      -0.65954952      -0.42945327      -2.26324468       0.00000000
Si      -0.43370496      -2.89836567      -1.83164966       0.00000000
Si       2.99329469      -0.75331476      -1.58085935       0.00000000
Si      -1.62733842       1.51782075       2.85824221       0.00000000
Si       1.85755589      -2.96696449      -0.93231923       0.00000000
Si       1.25280593      -3.18274183       1.37066274       0.00000000
Si      -0.96769116       3.61180251      -0.17457006       0.00000000
