10
Lattice="16.28999089631971 0.0 0.0 0.0 16.28999089631971 0.0 0.0 0.0 34.25627252547053" Properties=species:S:1:pos:R:3:initial_magmoms:R:1 pbc="T T T"
Si       1.07795817       0.87302997      -1.87381915       0.00000000
Si      -2.27211291       0.00612504      -0.78556528       0.00000000
Si       1.19834127      -2.07593244       0.18803278       0.00000000
Si       0.46556820       1.36269108       1.95164945       0.00000000
Si       3.42674811      -1.21479417       0.34581726       0.00000000
Si       3.36393387       0.22920030      -1.60747649       0.00000000
Si      -2.87510355      -2.32256304      -0.67950780       0.00000000
Si       0.08537589      -0.27113076      -3.75849755       0.00000000
Si       0.82295451       3.56962770       1.05543635       0.00000000
Si      -3.39144768       1.90529469       0.08262618       0.00000000
