10
Lattice="16.28999089631971 0.0 0.0 0.0 16.28999089631971 0.0 0.0 0.0 34.25627252547053" Properties=species:S:1:pos:R:3:initial_magmoms:R:1 pbc="T T T"
Si      -0.10770948       2.15045919       0.93636148       0.00000000
Si      -1.31321835      -0.33340743      -1.92373057       0.00000000
Si       2.04472799      -1.13601573      -0.57608806       0.00000000
Si      -1.16367615      -1.51611030       1.70705953       0.00000000
Si      -0.42849216      -2.37964320      -2.67534787       0.00000000
Si       1.93076152      -3.16524148       0.62963064       0.00000000
Si       1.77676074       2.46573585       2.27091809       0.00000000
Si       1.88269787      -1.84217094      -2.78380329       0.00000000
Si       3.25654109       2.09595285       0.39370756       0.00000000
Si      -3.35505582      -0.31690566       1.97771849       0.00000000
