10
Lattice="16.28999089631971 0.0 0.0 0.0 16.28999089631971 0.0 0.0 0.0 34.25627252547053" Properties=species:S:1:pos:R:3:initial_magmoms:R:1 pbc="T T T"
Si      -1.24591133       1.37425698      -1.43653759       0.00000000
Si       1.00009197       1.78790895       1.28649503       0.00000000
Si      -1.29940117      -1.39629735       1.51231251       0.00000000
Si       1.48667427      -1.35172791      -1.39738265       0.00000000
Si      -2.50084585      -2.72544732      -0.06799874       0.00000000
Si      -2.58753177       2.70067023      -0.00082215       0.00000000
Si      -2.58455637       0.02415807      -2.79510786       0.00000000
Si       0.13074354      -2.69332344      -2.79843072       0.00000000
Si      -0.82811844       3.55812696       1.34901277       0.00000000
Si       0.13211190       2.73481407      -2.79079157       0.00000000
