10
Lattice="16.28999089631971 0.0 0.0 0.0 16.28999089631971 0.0 0.0 0.0 34.25627252547053" Properties=species:S:1:pos:R:3:initial_magmoms:R:1 pbc="T T T"
Si      -1.84640634      -0.08752617       1.41594956       0.00000000
Si       0.23433165       2.35559916       0.05511837       0.00000000
Si      -0.39925161      -0.34650459      -2.40828582       0.00000000
Si       1.73444517      -1.14878709       1.32828771       0.00000000
Si      -1.88517654       2.26390275       1.27570430       0.00000000
Si       1.18594458      -2.14268886      -2.28061262       0.00000000
Si       3.74098614      -0.38542140       0.06998560       0.00000000
Si       2.01233628       2.92252374       1.44791068       0.00000000
Si       0.09521505       1.61420868      -3.64175211       0.00000000
Si       1.01182077      -3.27896523       2.03824935       0.00000000
