10
Lattice="16.28999089631971 0.0 0.0 0.0 16.28999089631971 0.0 0.0 0.0 34.25627252547053" Properties=species:S:1:pos:R:3:initial_magmoms:R:1 pbc="T T T"
Si      -1.35291064       1.35872653      -1.35887858       0.00000000
Si      -1.35686911      -1.35697190       1.35757684       0.00000000
Si       1.35828034       1.35853594       1.35696023       0.00000000
Si       1.35919584      -1.35656465      -1.35980350       0.00000000
Si       0.01023021      -2.70988898      -2.70278716       0.00000000
Si      -2.71366321      -0.00008992       2.71450281       0.00000000
Si      -2.71407046      -2.71475969       0.00092492       0.00000000
Si       0.00064778      -2.71459679       2.71470835       0.00000000
Si      -2.71582978       2.71387371      -0.00034256       0.00000000
Si       0.00131823       2.71545384       2.71457132       0.00000000
