10
Lattice="16.28999089631971 0.0 0.0 0.0 16.28999089631971 0.0 0.0 0.0 34.25627252547053" Properties=species:S:1:pos:R:3:initial_magmoms:R:1 pbc="T T T"
Si      -1.14365574       0.49493907      -1.95243734       0.00000000
Si      -1.24608726       1.08717831       1.69661136       0.00000000
Si      -0.20810475      -2.44490094       0.30553187       0.00000000
Si       2.13843717       1.25444403      -0.16730773       0.00000000
Si       3.31099137      -0.63803043      -0.83623034       0.00000000
Si       2.30914008       1.50092802       2.12330773       0.00000000
Si       1.96504641      -1.82713527      -2.36378689       0.00000000
Si      -0.73896327       2.81435814      -2.12354752       0.00000000
Si      -2.19813513      -0.71575002       2.83720884       0.00000000
Si      -0.71192187      -2.52286488       2.60207366       0.00000000
