10
Lattice="16.28999089631971 0.0 0.0 0.0 16.28999089631971 0.0 0.0 0.0 34.25627252547053" Properties=species:S:1:pos:R:3:initial_magmoms:R:1 pbc="T T T"
Si      -1.35228177       1.35540945       1.35699448       0.00000000
Si      -1.35648459      -1.35809730      -1.35692597       0.00000000
Si       1.35798930       1.35672894      -1.35692597       0.00000000
Si       1.35870456      -1.35889551       1.35946093       0.00000000
Si       0.01630629       2.69044011       2.72741743       0.00000000
Si      -2.71397916       2.71347417       0.00044533       0.00000000
Si      -2.71399545      -0.00055386      -2.71405748       0.00000000
Si       0.00047241       2.71435383      -2.71405748       0.00000000
Si       0.00050499      -2.71538010      -2.71354363       0.00000000
Si       2.71547362      -0.00070047      -2.71416025       0.00000000
