10
Lattice="16.28999089631971 0.0 0.0 0.0 16.28999089631971 0.0 0.0 0.0 34.25627252547053" Properties=species:S:1:pos:R:3:initial_magmoms:R:1 pbc="T T T"
Si       2.29044472       0.38760426       0.25640834       0.00000000
Si      -1.15621533       1.67047434       1.15635538       0.00000000
Si      -0.38244033       0.11445354      -2.34073241       0.00000000
Si      -0.61947612      -1.95450678       1.22599842       0.00000000
Si      -0.64780443       3.65276276      -0.02586350       0.00000000
Si       0.47975679      -1.89698679      -3.18021709       0.00000000
Si       2.62969374       0.80399295       2.54870236       0.00000000
Si      -3.45877425       1.18687311       0.94800862       0.00000000
Si       1.28265831      -2.66965407       2.38968465       0.00000000
Si      -2.64349233      -0.35950401      -2.75519928       0.00000000
