10
Lattice="16.28999089631971 0.0 0.0 0.0 16.28999089631971 0.0 0.0 0.0 34.25627252547053" Properties=species:S:1:pos:R:3:initial_magmoms:R:1 pbc="T T T"
Si      -1.79577702       1.08064602      -0.93262754       0.00000000
Si       1.62947241      -0.05079222      -1.72651710       0.00000000
Si      -1.19060352      -1.96532334       0.62161467       0.00000000
Si       0.58525083       1.24840044       2.01975096       0.00000000
Si       0.61100532      -3.09850461       1.72367383       0.00000000
Si       3.53160684      -0.76593951      -0.56283087       0.00000000
Si       0.75406410      -1.62743616      -3.24091924       0.00000000
Si      -3.63438045       0.61450767       0.43255419       0.00000000
Si       2.73701322      -2.63218707       0.69307329       0.00000000
Si      -1.20982572       3.09058767      -2.00450691       0.00000000
