10
Lattice="16.28999089631971 0.0 0.0 0.0 16.28999089631971 0.0 0.0 0.0 34.25627252547053" Properties=species:S:1:pos:R:3:initial_magmoms:R:1 pbc="T T T"
Si       1.53036405       1.37471310       1.06934440       0.00000000
Si      -0.95204787      -1.80292833       1.14059749       0.00000000
Si       1.24608726      -1.08717831      -1.69661136       0.00000000
Si      -1.89533743       1.38968361      -0.32276278       0.00000000
Si      -3.00113018      -1.93644117       0.01363400       0.00000000
Si      -2.39155838       1.86738786       1.94318814       0.00000000
Si       3.55522734       0.41374971       0.42669637       0.00000000
Si       0.10243152      -0.59223924      -3.64904870       0.00000000
Si       1.33514469       3.47214834      -0.02322577       0.00000000
Si       0.53416539      -3.61004319       0.90546230       0.00000000
