10
Lattice="16.28999089631971 0.0 0.0 0.0 16.28999089631971 0.0 0.0 0.0 34.25627252547053" Properties=species:S:1:pos:R:3:initial_magmoms:R:1 pbc="T T T"
Si      -2.00121021      -1.04013279      -0.63905112       0.00000000
Si       1.67238027       0.59100120      -1.54399958       0.00000000
Si      -0.78939711       2.19183579       0.33074450       0.00000000
Si      -0.28730673      -1.93851000       1.60059097       0.00000000
Si       1.15452117       3.29838291       1.22010634       0.00000000
Si       2.09367225       2.90983383      -1.00137992       0.00000000
Si       1.78600302      -0.70387461       3.22468176       0.00000000
Si      -2.11517668      -3.06935854       0.56666758       0.00000000
Si       0.83665440       0.37093959      -3.74065003       0.00000000
Si       3.67771185      -0.59020299      -1.16646099       0.00000000
