10
Lattice="16.28999089631971 0.0 0.0 0.0 16.28999089631971 0.0 0.0 0.0 34.25627252547053" Properties=species:S:1:pos:R:3:initial_magmoms:R:1 pbc="T T T"
Si       1.38337938      -1.20536226       1.51084976       0.00000000
Si       0.95216679       1.92753054      -1.05436618       0.00000000
Si      -0.68054733      -1.87753653      -1.47934224       0.00000000
Si      -1.34151408       1.47388662       1.50366279       0.00000000
Si      -2.58035881      -2.57670333       0.07494591       0.00000000
Si       2.76460848      -2.38042512       0.01984467       0.00000000
Si      -1.17952632       0.46600803      -3.52721761       0.00000000
Si      -0.94009590       3.54944439      -0.91828649       0.00000000
Si       0.02259423      -2.57046426       2.87800466       0.00000000
Si       2.73575889       2.81492829       0.19606246       0.00000000
