10
Lattice="16.28999089631971 0.0 0.0 0.0 16.28999089631971 0.0 0.0 0.0 34.25627252547053" Properties=species:S:1:pos:R:3:initial_magmoms:R:1 pbc="T T T"
Si      -1.34710318      -1.32628293       1.37708237       0.00000000
Si      -1.51439496       1.23830064      -1.31328345       0.00000000
Si       1.36731744       1.38875508       1.37077921       0.00000000
Si       1.34151408      -1.47388662      -1.50366279       0.00000000
Si       0.40141818       2.07555777      -2.42194928       0.00000000
Si       2.29368087       0.45364392      -2.55802897       0.00000000
Si      -2.70417977      -2.68991883      -0.00556322       0.00000000
Si       2.72489346      -2.67924888       0.00718697       0.00000000
Si       0.00697212      -2.68459200       2.73294640       0.00000000
Si      -2.70822846       0.02935458       2.73239829       0.00000000
