10
Lattice="16.28999089631971 0.0 0.0 0.0 16.28999089631971 0.0 0.0 0.0 34.25627252547053" Properties=species:S:1:pos:R:3:initial_magmoms:R:1 pbc="T T T"
Si       1.35509994      -1.35672894      -1.36333190       0.00000000
Si      -1.36074931       1.35918873      -1.36316061       0.00000000
Si      -1.37802323      -1.36055709       1.35425398       0.00000000
Si       1.35446463       1.37868786       1.37436242       0.00000000
Si       2.70774009       2.71704168      -0.00455609       0.00000000
Si       2.71215468      -2.71326240      -0.00061661       0.00000000
Si      -2.71666827      -2.71065600      -0.00431629       0.00000000
Si       2.71223613       0.00156384      -2.72042915       0.00000000
Si      -2.71702805       2.71568961      -0.00404224       0.00000000
Si      -0.00278559      -2.71321353      -2.72070320       0.00000000
