10
Lattice="16.28999089631971 0.0 0.0 0.0 16.28999089631971 0.0 0.0 0.0 34.25627252547053" Properties=species:S:1:pos:R:3:initial_magmoms:R:1 pbc="T T T"
Si      -1.75941333      -0.85745673      -1.34983492       0.00000000
Si       0.99391806       1.86890283      -1.19691483       0.00000000
Si      -0.90878978      -0.14030577       2.32004161       0.00000000
Si       1.82821041      -1.77021801      -0.06251773       0.00000000
Si      -0.67187453       2.27706507       2.54894215       0.00000000
Si      -0.41779289      -2.18386998      -2.78555036       0.00000000
Si       2.31469497       0.55537497      -2.76544191       0.00000000
Si       2.49805521      -1.87323597       2.19182031       0.00000000
Si       0.82811844      -3.55812696      -1.34901277       0.00000000
Si      -3.46383134      -1.89757323      -0.03055661       0.00000000
