10
Lattice="16.28999089631971 0.0 0.0 0.0 16.28999089631971 0.0 0.0 0.0 34.25627252547053" Properties=species:S:1:pos:R:3:initial_magmoms:R:1 pbc="T T T"
Si      -1.29033253      -1.33232652       1.48648326       0.00000000
Si      -1.57498725       1.23629697      -1.29447675       0.00000000
Si       1.27299834      -1.59765804      -1.26474229       0.00000000
Si       1.09081098       1.88087598       1.11391184       0.00000000
Si      -3.02004287       1.77217281       0.47277108       0.00000000
Si      -3.10730840       0.05411538       1.93236316       0.00000000
Si      -0.28427679       3.05160570      -2.04417569       0.00000000
Si       0.19277586      -1.61086923      -3.41295434       0.00000000
Si       3.35471373       1.16455581       1.31044018       0.00000000
Si       1.46821770      -3.69509328      -0.17217212       0.00000000
