10
Lattice="16.28999089631971 0.0 0.0 0.0 16.28999089631971 0.0 0.0 0.0 34.25627252547053" Properties=species:S:1:pos:R:3:initial_magmoms:R:1 pbc="T T T"
Si       1.55009124       1.13557590      -1.34419089       0.00000000
Si      -1.34804637       1.38952848       1.37568471       0.00000000
Si       1.38670254      -1.32693453       1.40487450       0.00000000
Si      -0.94345164      -2.00406096      -1.03450781       0.00000000
Si       2.56016898      -0.53594100      -2.72715164       0.00000000
Si       2.74830219       2.63256241       0.04600963       0.00000000
Si       0.02244762      -2.69086365       2.75822069       0.00000000
Si      -2.69407930       0.02368566       2.76024181       0.00000000
Si       2.73240315      -2.73857706       0.07984114       0.00000000
Si       2.73408102       0.02252907       2.76517471       0.00000000
