10
Lattice="16.28999089631971 0.0 0.0 0.0 16.28999089631971 0.0 0.0 0.0 34.25627252547053" Properties=species:S:1:pos:R:3:initial_magmoms:R:1 pbc="T T T"
Si      -1.35783992       1.35584928      -1.35918688       0.00000000
Si       1.36319607       1.33990137       1.37282089       0.00000000
Si       1.35827649      -1.36062225      -1.35980350       0.00000000
Si      -1.35541271      -1.37538099       1.39296359       0.00000000
Si      -2.71564793       2.71106452       0.00181558       0.00000000
Si       2.71034649      -2.71689507      -0.00003426       0.00000000
Si       0.00087966       2.71234616      -2.71556475       0.00000000
Si       2.71826343       2.71037565       0.00133600       0.00000000
Si       2.71485882      -0.00213399      -2.71604434       0.00000000
Si      -2.71513690      -0.00262269      -2.71590732       0.00000000
