10
Lattice="10.86 0.0 0.0 0.0 10.86 0.0 0.0 0.0 10.86" Properties=species:S:1:pos:R:3:initial_magmoms:R:1 pbc="T T T"
Si      -1.30753314      -1.23582456      -1.41896760       0.00000000
Si      -1.30753314       1.47917544       1.29603240       0.00000000
Si       1.40746686       1.47917544      -1.41896760       0.00000000
Si      -2.66503314      -2.59332456      -0.06146760       0.00000000
Si       2.72960670      -2.54043636      -0.01058850       0.00000000
Si      -2.66503314       0.12167544       2.65353240       0.00000000
Si      -0.06115266      -2.60638914       2.73022572       0.00000000
Si       0.04996686      -2.59332456      -2.77646760       0.00000000
Si       2.75488878      -0.01860318       2.65639944       0.00000000
Si      -2.66503314       0.12167544      -2.77646760       0.00000000
