10
Lattice="16.28999089631971 0.0 0.0 0.0 16.28999089631971 0.0 0.0 0.0 34.395419527814205" Properties=species:S:1:pos:R:3:initial_magmoms:R:1 pbc="T T T"
Si      -2.17530863       0.85993281      -0.01179764       0.00000000
Si       0.71115624      -0.57278898      -2.17045537       0.00000000
Si      -0.66381587      -1.98684243       1.09178002       0.00000000
Si       1.29060783       1.41816409       1.42713554       0.00000000
Si       0.31369327       0.53124948       3.28442045       0.00000000
Si      -0.71994795       0.91869084      -3.33584163       0.00000000
Si      -0.07625512      -2.85806421      -2.28213736       0.00000000
Si       0.57663342      -1.73262069       3.18646224       0.00000000
Si       0.23171222      -3.73080096      -0.12347963       0.00000000
Si      -3.14671391       0.50173200       2.06228172       0.00000000
