10
Lattice="16.28999089631971 0.0 0.0 0.0 16.28999089631971 0.0 0.0 0.0 34.395419527814205" Properties=species:S:1:pos:R:3:initial_magmoms:R:1 pbc="T T T"
Si       1.35485559      -1.35690554       1.35820709       0.00000000
Si       1.35697329       1.35675500      -1.35665929       0.00000000
Si      -1.35798327      -1.35775106      -1.35669369       0.00000000
Si      -1.35897696       1.35589163       1.35789753       0.00000000
Si       2.70659979      -0.00580413       2.69391955       0.00000000
Si      -0.00050499       2.71433102      -2.71380012       0.00000000
Si       2.71464705      -0.00033232      -2.71383451       0.00000000
Si      -2.71461447       2.71390748       0.00068791       0.00000000
Si      -2.71437664      -2.71422092       0.00065351       0.00000000
Si      -2.71502824      -0.00047078      -2.71383451       0.00000000
