10
Lattice="16.28999089631971 0.0 0.0 0.0 16.28999089631971 0.0 0.0 0.0 34.395419527814205" Properties=species:S:1:pos:R:3:initial_magmoms:R:1 pbc="T T T"
Si      -1.35718506      -1.35627282       1.35686566       0.00000000
Si       1.35892809      -1.35591444      -1.35738159       0.00000000
Si       1.35796698       1.35892809       1.35665929       0.00000000
Si      -1.35615879       1.35912357      -1.36095872       0.00000000
Si       2.71419093      -2.71357191       0.00065351       0.00000000
Si       0.00029322      -2.71384884       2.71400649       0.00000000
Si      -2.71461447       0.00130320       2.71431605       0.00000000
Si      -2.71554300      -2.71415835      -0.00048154       0.00000000
Si       2.71562445       0.00162900       2.71421286       0.00000000
Si      -2.71454931       2.71588509      -0.00096307       0.00000000
