10
Lattice="16.28999089631971 0.0 0.0 0.0 16.28999089631971 0.0 0.0 0.0 34.395419527814205" Properties=species:S:1:pos:R:3:initial_magmoms:R:1 pbc="T T T"
Si      -1.45731969       1.44498816       1.20146707       0.00000000
Si      -1.24025544      -2.05907229      -0.10012512       0.00000000
Si       0.60145938       0.71988768      -2.25572166       0.00000000
Si       2.26334889      -0.00444717       0.92038755       0.00000000
Si       2.68307703      -1.85192865      -0.66114912       0.00000000
Si       0.76945815      -3.26171412      -0.39200482       0.00000000
Si       2.34976734       2.29017852      -1.76844148       0.00000000
Si      -1.51089750       1.48902003      -3.14959033       0.00000000
Si       3.09265650       2.21009688       0.43475835       0.00000000
Si       2.22329178      -0.27958527       3.28022420       0.00000000
