10
Lattice="16.28999089631971 0.0 0.0 0.0 16.28999089631971 0.0 0.0 0.0 34.395419527814205" Properties=species:S:1:pos:R:3:initial_magmoms:R:1 pbc="T T T"
Si       1.72660968       1.14036516      -1.23481486       0.00000000
Si       1.35654975      -1.23126336       1.59424922       0.00000000
Si      -1.34037378       1.48149405       1.57841356       0.00000000
Si      -1.35553977      -1.57690458      -1.50605729       0.00000000
Si       2.64557745      -2.62866843       0.15011201       0.00000000
Si       3.48257394      -0.80107704      -1.09545107       0.00000000
Si      -2.74321971      -2.72163546       0.11892911       0.00000000
Si       0.01291797      -2.57769702       2.97712816       0.00000000
Si      -2.74862799       2.87153604       0.14381421       0.00000000
Si      -2.70137070       0.13572828       2.97368861       0.00000000
