10
Lattice="16.28999089631971 0.0 0.0 0.0 16.28999089631971 0.0 0.0 0.0 34.395419527814205" Properties=species:S:1:pos:R:3:initial_magmoms:R:1 pbc="T T T"
Si      -0.32540904       0.66772710       2.18242498       0.00000000
Si      -0.40560471       1.59816303      -1.62614755       0.00000000
Si       2.29511439       0.26020017      -0.35637114       0.00000000
Si      -1.21653720      -2.15542764      -0.31413354       0.00000000
Si      -1.69298712       0.27969930      -3.00626453       0.00000000
Si      -2.97178470      -1.15227315      -1.58421951       0.00000000
Si       1.77174927       0.09635535       3.09906343       0.00000000
Si      -2.06312850      -0.82523511       2.86022150       0.00000000
Si       2.87604837      -1.65781701      -1.53455250       0.00000000
Si       3.39612291       1.08981729       1.57286902       0.00000000
