10
Lattice="16.28999089631971 0.0 0.0 0.0 16.28999089631971 0.0 0.0 0.0 34.395419527814205" Properties=species:S:1:pos:R:3:initial_magmoms:R:1 pbc="T T T"
Si       0.58093398      -1.91801718      -1.17818136       0.00000000
Si      -2.29511439      -0.26020017       0.35637114       0.00000000
Si       1.10100852       0.82961712       1.92924016       0.00000000
Si       1.57279950      -0.10572210      -2.34208861       0.00000000
Si      -2.70071910       1.33796286      -1.26977641       0.00000000
Si      -0.52336512      -0.16384482       3.45543457       0.00000000
Si      -2.62052343       0.40752693       2.53879612       0.00000000
Si       3.55706811       0.55578222      -0.90356818       0.00000000
Si       3.42827937       0.36349506       1.53943665       0.00000000
Si      -1.19483892       2.70961344      -2.45844838       0.00000000
