10
Lattice="16.28999089631971 0.0 0.0 0.0 16.28999089631971 0.0 0.0 0.0 34.395419527814205" Properties=species:S:1:pos:R:3:initial_magmoms:R:1 pbc="T T T"
Si       2.32253046       0.06014268       0.11880185       0.00000000
Si      -0.53849853       1.87235631      -1.34186925       0.00000000
Si      -1.01333574      -2.11089078      -0.52009343       0.00000000
Si      -0.32938380       1.40685327       2.14686010       0.00000000
Si      -2.94259628      -1.20350520      -1.52612562       0.00000000
Si       0.64252647       3.49656705      -0.21431798       0.00000000
Si       2.70580158       2.37469104      -0.26601432       0.00000000
Si      -2.78389584       0.84339846       2.35780733       0.00000000
Si      -3.73598607       0.45752094      -0.00890842       0.00000000
Si      -2.84871049       2.29811175      -1.18378782       0.00000000
