10
Lattice="16.28999089631971 0.0 0.0 0.0 16.28999089631971 0.0 0.0 0.0 34.395419527814205" Properties=species:S:1:pos:R:3:initial_magmoms:R:1 pbc="T T T"
Si       1.35633798      -1.35799956       1.36123388       0.00000000
Si      -1.36023129       1.35780408       1.36185300       0.00000000
Si      -1.35322659      -1.35865116      -1.38625313       0.00000000
Si       1.36099692       1.34576577      -1.39527505       0.00000000
Si       2.71428867      -2.71342530       0.00343954       0.00000000
Si       2.71453302       2.71383255      -0.00196054       0.00000000
Si      -2.71582970      -2.71456560       0.00030956       0.00000000
Si       2.71353933       0.00032580       2.71892504       0.00000000
Si      -0.00131949      -2.71454931       2.71913141       0.00000000
Si      -0.00143352       2.71609686       2.71902822       0.00000000
