10
Lattice="16.28999089631971 0.0 0.0 0.0 16.28999089631971 0.0 0.0 0.0 34.395419527814205" Properties=species:S:1:pos:R:3:initial_magmoms:R:1 pbc="T T T"
Si       1.26529317       1.95786971      -0.18986282       0.00000000
Si       0.52927839      -1.51720173      -1.73996206       0.00000000
Si      -2.33080578       0.46316284       0.04849757       0.00000000
Si       0.68654205      -1.10776887       2.07139651       0.00000000
Si       0.10153557      -3.48734691      -0.53264776       0.00000000
Si       0.67245120       2.48848388      -2.43189510       0.00000000
Si      -0.76481550      -3.14566416       1.61438431       0.00000000
Si      -2.46174480       2.83844195      -0.17094533       0.00000000
Si      -3.30772034      -0.42375177       1.90578247       0.00000000
Si       3.84367437      -0.64053909      -0.26584235       0.00000000
