10
Lattice="16.28999089631971 0.0 0.0 0.0 16.28999089631971 0.0 0.0 0.0 34.395419527814205" Properties=species:S:1:pos:R:3:initial_magmoms:R:1 pbc="T T T"
Si       0.82907955       1.98931851      -0.75872898       0.00000000
Si      -1.09846728       0.89761158       1.85099054       0.00000000
Si      -0.07446159      -1.61414026      -1.71045077       0.00000000
Si       1.83332547      -0.86975568       1.24514928       0.00000000
Si      -2.56381794       0.91043181      -1.87489537       0.00000000
Si       2.20338540       2.23686135       1.15441411       0.00000000
Si       1.96833699       1.01977029      -2.54522807       0.00000000
Si      -2.07031239      -2.59844138      -1.05913875       0.00000000
Si       0.44196399       2.48818347       2.74241712       0.00000000
Si      -0.97645518      -0.75517182       3.53334024       0.00000000
