10
Lattice="16.28999089631971 0.0 0.0 0.0 16.28999089631971 0.0 0.0 0.0 34.395419527814205" Properties=species:S:1:pos:R:3:initial_magmoms:R:1 pbc="T T T"
Si      -0.34422399      -2.00342565       1.23104715       0.00000000
Si      -0.53263413       1.33898913       1.91599792       0.00000000
Si       2.35035378      -0.40045707      -0.32211328       0.00000000
Si      -1.00843245      -3.11168974      -0.74153126       0.00000000
Si       2.09828232       0.21927969      -2.71637978       0.00000000
Si      -0.68978376       3.34414152       0.65681530       0.00000000
Si       0.30555153       1.96154406      -2.86321390       0.00000000
Si      -1.47356082       2.78803350      -1.52753583       0.00000000
Si      -2.68040547       0.22120191       2.43519706       0.00000000
Si       1.74772152      -2.91775077       1.60870907       0.00000000
