10
Lattice="16.28999089631971 0.0 0.0 0.0 16.28999089631971 0.0 0.0 0.0 34.395419527814205" Properties=species:S:1:pos:R:3:initial_magmoms:R:1 pbc="T T T"
Si      -0.15714963       2.00515239      -1.25918262       0.00000000
Si       0.53263413      -1.33898913      -1.91599792       0.00000000
Si       1.06981317      -0.05230719       2.15721313       0.00000000
Si      -2.14777134      -1.11778722       0.51919915       0.00000000
Si      -0.76049865      -2.90278026       1.50951262       0.00000000
Si       0.18841014      -3.34241478      -0.68495077       0.00000000
Si      -1.92394674       2.86272315       0.05916015       0.00000000
Si      -3.33975951       1.05212223      -0.07756171       0.00000000
Si      -0.72472581       0.79184061       3.50971057       0.00000000
Si      -0.94092669       1.44904437      -3.44353375       0.00000000
