10
Lattice="16.28999089631971 0.0 0.0 0.0 16.28999089631971 0.0 0.0 0.0 34.395419527814205" Properties=species:S:1:pos:R:3:initial_magmoms:R:1 pbc="T T T"
Si       0.00886176       2.37522928       0.25383834       0.00000000
Si      -0.98293860      -1.20521565       1.88153369       0.00000000
Si       2.45786778      -0.36033480       0.07539480       0.00000000
Si      -1.79413173      -0.09345573      -1.72345225       0.00000000
Si      -0.54037188       1.18846368      -3.22887181       0.00000000
Si      -3.29393574       1.15779206      -0.28706433       0.00000000
Si       0.25418916       3.15982736      -1.96508021       0.00000000
Si      -3.21646050      -0.16089633       2.02410278       0.00000000
Si      -0.86307678      -3.50358804       1.25171881       0.00000000
Si      -2.22860232       3.24538244       0.20695735       0.00000000
