10
Lattice="16.28999089631971 0.0 0.0 0.0 16.28999089631971 0.0 0.0 0.0 34.395419527814205" Properties=species:S:1:pos:R:3:initial_magmoms:R:1 pbc="T T T"
Si      -1.99182717       0.94149684      -0.84165639       0.00000000
Si       1.69966602       1.18855098      -1.14313241       0.00000000
Si       0.49536261      -2.23376625      -0.75047408       0.00000000
Si       0.62045352       0.26332785       2.36977694       0.00000000
Si       2.33308638      -2.48689656       0.66799382       0.00000000
Si       2.56867236       1.49701842       2.02867737       0.00000000
Si       1.49229432      -1.84077000       2.78781910       0.00000000
Si      -2.85726600       2.24845983       0.83618751       0.00000000
Si      -3.63099213      -0.72019719      -0.79553210       0.00000000
Si       3.68531928       0.95404014       0.05977927       0.00000000
