10
Lattice="16.28999089631971 0.0 0.0 0.0 16.28999089631971 0.0 0.0 0.0 34.395419527814205" Properties=species:S:1:pos:R:3:initial_magmoms:R:1 pbc="T T T"
Si       1.67262462       1.08411579       1.18665846       0.00000000
Si       0.00387702       0.34417512      -2.29672382       0.00000000
Si      -1.07777898      -1.70899693       1.20904301       0.00000000
Si      -1.61391546      -1.56613689      -2.19842165       0.00000000
Si       2.35066329      -0.09394443      -2.15639043       0.00000000
Si      -2.41637715      -0.24283503       2.55247038       0.00000000
Si       0.29739024       2.47699224       2.54838764       0.00000000
Si       3.16994996       1.94279427      -0.49612260       0.00000000
Si      -1.80317268      -3.37576760      -0.43589619       0.00000000
Si       0.32487147      -2.97111789       2.57747586       0.00000000
