10
Lattice="16.28999089631971 0.0 0.0 0.0 16.28999089631971 0.0 0.0 0.0 34.395419527814205" Properties=species:S:1:pos:R:3:initial_magmoms:R:1 pbc="T T T"
Si       1.35710936       1.35700098      -1.35734720       0.00000000
Si      -1.35785295      -1.35841857      -1.35762236       0.00000000
Si       1.35536893      -1.35822236       1.36037400       0.00000000
Si      -1.35905841       1.35701727       1.36388233       0.00000000
Si       2.71493117       2.71399056      -0.00017198       0.00000000
Si       2.71451740      -0.00038770      -2.71469440       0.00000000
Si       2.71516900      -2.71413784      -0.00020637       0.00000000
Si      -0.00073305       2.71490280      -2.71476319       0.00000000
Si      -2.71464705      -2.71526185      -0.00030956       0.00000000
Si      -0.00079821      -2.71562023      -2.71469440       0.00000000
