10
Lattice="16.28999089631971 0.0 0.0 0.0 16.28999089631971 0.0 0.0 0.0 34.395419527814205" Properties=species:S:1:pos:R:3:initial_magmoms:R:1 pbc="T T T"
Si      -1.35630540       1.35892809      -1.36398552       0.00000000
Si       1.35905841      -1.35701727      -1.36388233       0.00000000
Si      -1.35676152      -1.35257336       1.39218978       0.00000000
Si       1.35925389       1.35233064       1.39679877       0.00000000
Si       2.71442734      -2.71523963      -0.00350833       0.00000000
Si       2.71797021       2.71381626      -0.00295801       0.00000000
Si      -2.71500543      -2.71701629      -0.00044714       0.00000000
Si      -2.71793763       2.71560816      -0.00681030       0.00000000
Si      -2.71487511       0.00079821      -2.72129832       0.00000000
Si       0.00076563       2.71538010      -2.72143590       0.00000000
