10
Lattice="16.28999089631971 0.0 0.0 0.0 16.28999089631971 0.0 0.0 0.0 34.395419527814205" Properties=species:S:1:pos:R:3:initial_magmoms:R:1 pbc="T T T"
Si       1.35563751      -1.35801585       1.35720962       0.00000000
Si       1.35668007       1.35799956      -1.35703764       0.00000000
Si      -1.35782181      -1.35698958      -1.35717522       0.00000000
Si      -1.35601937       1.35684297       1.36109630       0.00000000
Si       2.71461447      -2.71390748      -0.00068791       0.00000000
Si       2.71410948       0.00042354      -2.71448803       0.00000000
Si      -0.00041377      -2.71437826      -2.71452242       0.00000000
Si      -2.71493117      -2.71399056       0.00017198       0.00000000
Si      -2.71566422       0.00091224      -2.71459121       0.00000000
Si      -0.00093342       2.71575477      -2.71455682       0.00000000
