10
Lattice="16.28999089631971 0.0 0.0 0.0 16.28999089631971 0.0 0.0 0.0 34.395419527814205" Properties=species:S:1:pos:R:3:initial_magmoms:R:1 pbc="T T T"
Si       1.35707103       1.35645201      -1.35745039       0.00000000
Si      -1.35856971      -1.35812988      -1.35731280       0.00000000
Si      -1.36163223       1.35668007       1.35717522       0.00000000
Si       1.35630540      -1.35892809       1.36398552       0.00000000
Si      -2.70938538      -0.00030951       2.69326604       0.00000000
Si      -2.71446786       2.71420722      -0.00134142       0.00000000
Si      -0.00074934       2.71396287      -2.71483198       0.00000000
Si       2.71463076      -0.00104256      -2.71466000       0.00000000
Si       2.71472850       2.71521720      -0.00006879       0.00000000
Si      -2.71581993      -0.00125433      -2.71476319       0.00000000
