10
Lattice="16.28999089631971 0.0 0.0 0.0 16.28999089631971 0.0 0.0 0.0 34.395419527814205" Properties=species:S:1:pos:R:3:initial_magmoms:R:1 pbc="T T T"
Si       1.36067275      -1.39991373       1.39917205       0.00000000
Si      -1.53633175       1.14678342       1.44725688       0.00000000
Si       1.38458647       1.23838209      -1.52450903       0.00000000
Si      -1.28495569      -1.49581296      -1.47047380       0.00000000
Si       2.67719797      -2.72107997      -0.18762712       0.00000000
Si      -2.66146576       2.78879913      -0.01465246       0.00000000
Si       0.04034544       2.57139279      -3.05232003       0.00000000
Si       3.11253193       2.52444501      -0.19584763       0.00000000
Si      -2.09483440      -3.43741480      -0.17572630       0.00000000
Si      -2.67671320      -0.13962159      -3.02769289       0.00000000
