10
Lattice="16.28999089631971 0.0 0.0 0.0 16.28999089631971 0.0 0.0 0.0 34.395419527814205" Properties=species:S:1:pos:R:3:initial_magmoms:R:1 pbc="T T T"
Si      -2.21102541       0.63148185       0.40215147       0.00000000
Si       1.08612990       1.09084356       1.83664764       0.00000000
Si       0.13146030      -2.44610640       0.14666215       0.00000000
Si       0.29870973       1.10258865      -2.19800612       0.00000000
Si      -2.84267016      -1.24201476       1.67553940       0.00000000
Si       3.04586252       1.73380986       0.75993282       0.00000000
Si       0.37851444       3.31718157      -1.33247930       0.00000000
Si      -0.98780931      -2.68552542       2.19563283       0.00000000
Si      -0.44149158       2.54599668       2.91748991       0.00000000
Si      -2.32764552       2.76223014       1.54741639       0.00000000
