10
Lattice="16.28999089631971 0.0 0.0 0.0 16.28999089631971 0.0 0.0 0.0 34.395419527814205" Properties=species:S:1:pos:R:3:initial_magmoms:R:1 pbc="T T T"
Si      -1.16188425      -1.42250796      -1.53680338       0.00000000
Si       1.30706073      -1.34807895       1.53919244       0.00000000
Si       1.32586228       1.49775147      -1.38704564       0.00000000
Si      -1.38971619       1.34047152       1.54242218       0.00000000
Si      -0.65705715       2.46733227      -2.46568660       0.00000000
Si      -1.56178746       0.35043048      -3.31116088       0.00000000
Si      -2.80591992      -2.65321746      -0.01054908       0.00000000
Si       2.67692497       2.80049535       0.13229518       0.00000000
Si      -2.86153398       2.60923446       0.17545801       0.00000000
Si       2.57000067      -2.89797471       0.18343775       0.00000000
