10
Lattice="16.28999089631971 0.0 0.0 0.0 16.28999089631971 0.0 0.0 0.0 34.395419527814205" Properties=species:S:1:pos:R:3:initial_magmoms:R:1 pbc="T T T"
Si      -1.36971207      -1.33695288       1.38091495       0.00000000
Si       1.34786718       1.38043089       1.38084616       0.00000000
Si      -1.47181779       1.26876294      -1.36696416       0.00000000
Si       1.38971619      -1.34047152      -1.54242218       0.00000000
Si       2.69677692      -2.68855047      -0.00322973       0.00000000
Si      -2.72109789      -2.68328880      -0.00553079       0.00000000
Si       2.69644106       2.72438847       0.02535632       0.00000000
Si      -0.01120752      -2.69361666       2.74001632       0.00000000
Si       2.70117262       0.01992267       2.73936281       0.00000000
Si      -2.72779308       2.73847932       0.00756012       0.00000000
