10
Lattice="16.28999089631971 0.0 0.0 0.0 16.28999089631971 0.0 0.0 0.0 34.395419527814205" Properties=species:S:1:pos:R:3:initial_magmoms:R:1 pbc="T T T"
Si       1.72947672       1.63600470      -0.27822470       0.00000000
Si       0.71394183      -1.94123043      -1.32377725       0.00000000
Si      -0.88883127      -0.08676054       2.30734922       0.00000000
Si       1.91888055      -1.36865322       1.00365890       0.00000000
Si      -2.18567817       0.96417252      -1.57152760       0.00000000
Si       0.45649467       1.84785615       2.94521263       0.00000000
Si      -0.64503513       1.99658385      -2.97135316       0.00000000
Si       2.05724781      -0.84237219      -2.94019090       0.00000000
Si       0.47622186       3.49687656      -1.34575594       0.00000000
Si       3.50038610       0.58399650      -1.64423955       0.00000000
