10
Lattice="16.28999089631971 0.0 0.0 0.0 16.28999089631971 0.0 0.0 0.0 34.395419527814205" Properties=species:S:1:pos:R:3:initial_magmoms:R:1 pbc="T T T"
Si       1.95973261       0.64296630      -1.07671481       0.00000000
Si       0.84445731      -1.11338892       1.87895403       0.00000000
Si      -1.52762148       1.45515312       1.08084227       0.00000000
Si      -1.08612990      -1.09084356      -1.83664764       0.00000000
Si      -3.29715531      -0.45936171      -1.43449617       0.00000000
Si      -0.61653807      -2.97510786       2.04663179       0.00000000
Si      -3.41377542       1.67138658      -0.28923124       0.00000000
Si       3.00138037      -1.45104804      -1.86753474       0.00000000
Si       3.57185617       1.29868767       0.49395290       0.00000000
Si       1.51234405       2.50598844      -2.53229539       0.00000000
