10
Lattice="16.28999089631971 0.0 0.0 0.0 16.28999089631971 0.0 0.0 0.0 34.395419527814205" Properties=species:S:1:pos:R:3:initial_magmoms:R:1 pbc="T T T"
Si       0.01387908       0.05422941       2.36217555       0.00000000
Si      -0.80475858       1.86867477      -1.22664453       0.00000000
Si       2.17520763       0.44911530      -0.86339430       0.00000000
Si      -1.34532594      -1.93461669      -0.63786341       0.00000000
Si       1.27298205      -0.21185145      -3.22343733       0.00000000
Si      -0.45649467      -1.84785615      -2.94521263       0.00000000
Si      -2.39135571       0.56321046       2.56624369       0.00000000
Si       2.57917194       2.70088200      -0.14820995       0.00000000
Si       1.40299254      -1.85971527       3.00069247       0.00000000
Si       0.48290076       3.83548050      -0.77592670       0.00000000
