10
Lattice="16.28999089631971 0.0 0.0 0.0 16.28999089631971 0.0 0.0 0.0 34.395419527814205" Properties=species:S:1:pos:R:3:initial_magmoms:R:1 pbc="T T T"
Si      -1.36746405      -1.75047453      -0.76261567       0.00000000
Si      -0.67160412       0.31975641       2.29417576       0.00000000
Si      -1.05020001       1.79742231      -1.31459367       0.00000000
Si       2.40523479      -0.50898105      -0.20406814       0.00000000
Si      -3.25883079      -1.12783815       0.44586807       0.00000000
Si       2.39135571      -0.56321046      -2.56624369       0.00000000
Si       0.13372461       3.59403012      -0.39086977       0.00000000
Si      -0.52624845      -3.78815805       0.02947689       0.00000000
Si      -2.49065955      -1.21241583       2.66134707       0.00000000
Si       1.16611965       0.06662610       3.71264366       0.00000000
