10
Lattice="16.28999089631971 0.0 0.0 0.0 16.28999089631971 0.0 0.0 0.0 34.395419527814205" Properties=species:S:1:pos:R:3:initial_magmoms:R:1 pbc="T T T"
Si      -0.01387908      -0.05422941      -2.36217555       0.00000000
Si       1.46882043       1.49296221       1.13167873       0.00000000
Si       1.38911346      -1.91394468       0.63851692       0.00000000
Si      -2.40523479       0.50898105       0.20406814       0.00000000
Si       1.67857880       3.29056371      -0.32149417       0.00000000
Si       3.58649504      -1.29090105      -0.14569908       0.00000000
Si      -1.35920502      -1.98884610      -3.00003896       0.00000000
Si       0.70006275       1.79220951       3.35675405       0.00000000
Si       2.16132855       0.39488589      -3.22556985       0.00000000
Si       3.71393171       0.67865769       1.12741369       0.00000000
