10
Lattice="16.28999089631971 0.0 0.0 0.0 16.28999089631971 0.0 0.0 0.0 34.395419527814205" Properties=species:S:1:pos:R:3:initial_magmoms:R:1 pbc="T T T"
Si      -0.60694911       2.22006636       0.08107005       0.00000000
Si       2.12185395      -0.58977945      -0.81912737       0.00000000
Si      -0.15268617      -0.69608799       2.27639332       0.00000000
Si      -1.36930482      -1.46655612      -1.35318535       0.00000000
Si       1.89353331      -2.85941628      -0.13603396       0.00000000
Si       0.29520738      -3.06152631      -1.77999835       0.00000000
Si       1.56103812      -2.38477455       2.21162671       0.00000000
Si      -2.36064906      -1.54644228       2.35068747       0.00000000
Si       1.33222878       3.43666872      -0.47888769       0.00000000
Si      -2.44467288       2.47319667      -1.33739784       0.00000000
