10
Lattice="16.28999089631971 0.0 0.0 0.0 16.28999089631971 0.0 0.0 0.0 34.395419527814205" Properties=species:S:1:pos:R:3:initial_magmoms:R:1 pbc="T T T"
Si      -2.12015979      -0.52756794       0.78982246       0.00000000
Si       1.82992919      -1.34001540       0.65512992       0.00000000
Si       0.62037207      -0.84932802      -2.16147816       0.00000000
Si       0.23353344       2.38596602       0.20100694       0.00000000
Si       1.35280305       2.62538504      -1.84796374       0.00000000
Si      -1.72118511      -0.37952442       3.08220966       0.00000000
Si       3.50642969       0.24135264       0.67765893       0.00000000
Si       2.71664325      -1.98392652      -1.53376140       0.00000000
Si       0.18156834       1.27638244      -3.52811213       0.00000000
Si      -3.66412599       1.19556612       0.51569081       0.00000000
