10
Lattice="16.28999089631971 0.0 0.0 0.0 16.28999089631971 0.0 0.0 0.0 34.395419527814205" Properties=species:S:1:pos:R:3:initial_magmoms:R:1 pbc="T T T"
Si      -0.58694499       2.22433434      -0.04825680       0.00000000
Si       2.00901868      -0.22072950       1.19407205       0.00000000
Si      -1.93917789      -1.21660236       0.55995774       0.00000000
Si       0.76875768      -0.29924730      -2.22507533       0.00000000
Si       2.79643004       2.06454573       1.30575404       0.00000000
Si      -1.33222878      -3.43666872       0.47888769       0.00000000
Si      -2.57259825       2.45884518      -1.25116848       0.00000000
Si      -1.70359191       2.76731262       1.92064130       0.00000000
Si       3.39487577      -1.69684785       0.02651888       0.00000000
Si       1.36532584       3.55602555       0.14036779       0.00000000
