10
Lattice="16.28999089631971 0.0 0.0 0.0 16.28999089631971 0.0 0.0 0.0 34.395419527814205" Properties=species:S:1:pos:R:3:initial_magmoms:R:1 pbc="T T T"
Si      -1.04534559      -1.63163898       1.33910527       0.00000000
Si       1.69515369       1.07131185       1.33966248       0.00000000
Si       1.15913124      -1.77354117      -1.30203933       0.00000000
Si      -1.69429032       2.13737832      -0.28376237       0.00000000
Si       0.52900146      -0.22232592      -3.04506259       0.00000000
Si      -1.82120571       0.14317281      -2.85908645       0.00000000
Si      -2.30132088      -0.16192260       2.71362956       0.00000000
Si       0.43375383       2.54202803       2.72960968       0.00000000
Si      -2.90196576      -2.45887776       0.01492109       0.00000000
Si      -3.55319109       1.21894812       1.17358754       0.00000000
