10
Lattice="16.28999089631971 0.0 0.0 0.0 16.28999089631971 0.0 0.0 0.0 34.395419527814205" Properties=species:S:1:pos:R:3:initial_magmoms:R:1 pbc="T T T"
Si       1.35690161      -1.35791811       1.36109630       0.00000000
Si      -1.36060598       1.35615879       1.36106191       0.00000000
Si      -1.36500167      -1.35231435      -1.38153063       0.00000000
Si       1.36260311       1.35591444      -1.38656269       0.00000000
Si       2.71529213      -2.71467963       0.00110065       0.00000000
Si       2.71582970       2.71456560      -0.00030956       0.00000000
Si      -2.71391141       2.71666701       0.00254526       0.00000000
Si      -2.71889615      -2.71311579       0.00278603       0.00000000
Si       2.71451021       0.00001629       2.71882185       0.00000000
Si      -0.00077703      -2.71474479       2.71885625       0.00000000
