10
Lattice="16.28999089631971 0.0 0.0 0.0 16.28999089631971 0.0 0.0 0.0 34.395419527814205" Properties=species:S:1:pos:R:3:initial_magmoms:R:1 pbc="T T T"
Si       1.35957969       1.34643366      -1.36199058       0.00000000
Si      -1.35744570      -1.36700793      -1.36353838       0.00000000
Si      -1.34869797       1.44194193       1.30771458       0.00000000
Si       1.41032304      -1.34236116       1.37712458       0.00000000
Si      -2.62749555       0.00996948       2.72975960       0.00000000
Si      -0.00063531       2.70661608      -2.72339644       0.00000000
Si       2.72787453       2.70423774       0.02930491       0.00000000
Si      -2.71516344      -0.00803097      -2.72332765       0.00000000
Si       2.71555929      -0.00801468      -2.72429073       0.00000000
Si      -2.71212862      -2.73266379       0.01255434       0.00000000
