10
Lattice="16.28999089631971 0.0 0.0 0.0 16.28999089631971 0.0 0.0 0.0 34.395419527814205" Properties=species:S:1:pos:R:3:initial_magmoms:R:1 pbc="T T T"
Si       1.75524750      -1.00315449       1.27008597       0.00000000
Si       1.27879758       1.43197245      -1.42204502       0.00000000
Si      -1.44313829      -1.42636869      -1.29595134       0.00000000
Si      -1.77090938       1.05200820       1.36601485       0.00000000
Si       2.97178470       1.15227315       1.58421951       0.00000000
Si      -1.58150555      -1.95264972       2.64789846       0.00000000
Si       0.63845397      -1.67299929       3.28473001       0.00000000
Si       2.56617999       2.75043618      -0.04192804       0.00000000
Si      -2.78644427      -2.52522693       0.32046230       0.00000000
Si       2.62749555      -0.00996948      -2.72975960       0.00000000
