10
Lattice="16.28999089631971 0.0 0.0 0.0 16.28999089631971 0.0 0.0 0.0 34.395419527814205" Properties=species:S:1:pos:R:3:initial_magmoms:R:1 pbc="T T T"
Si       1.28738241       1.31846373       1.38011698       0.00000000
Si      -1.39097378       1.29233457      -1.30272724       0.00000000
Si       1.34869797      -1.44194193      -1.30771458       0.00000000
Si      -1.27879758      -1.43197245       1.42204502       0.00000000
Si       1.69298712      -0.27969930       3.00626453       0.00000000
Si       0.47644992      -2.43512694       2.69213099       0.00000000
Si      -0.01161477       2.62374885      -2.67142494       0.00000000
Si       2.70827766      -0.09550827      -2.66970516       0.00000000
Si      -2.72477148      -0.09088191      -2.66894847       0.00000000
Si      -0.00874773      -2.80894986      -2.67125296       0.00000000
