10
Lattice="16.28999089631971 0.0 0.0 0.0 16.28999089631971 0.0 0.0 0.0 34.395419527814205" Properties=species:S:1:pos:R:3:initial_magmoms:R:1 pbc="T T T"
Si      -0.27020223      -2.00003733      -1.15971101       0.00000000
Si      -1.77734000       1.38593691      -0.71838313       0.00000000
Si       1.73771946       1.49296221      -0.67779652       0.00000000
Si      -0.35217351      -0.29985003       2.36148764       0.00000000
Si       0.84659130      -1.33019253      -3.17435504       0.00000000
Si       2.06312850       0.82523511      -2.86022150       0.00000000
Si      -2.49016175      -2.27968776      -1.79654256       0.00000000
Si       0.17718633      -3.86305947       0.29586956       0.00000000
Si      -1.37337569       3.63770361      -0.00319878       0.00000000
Si       1.12837572       3.75668577      -0.06662396       0.00000000
