10
Lattice="16.28999089631971 0.0 0.0 0.0 16.28999089631971 0.0 0.0 0.0 34.395419527814205" Properties=species:S:1:pos:R:3:initial_magmoms:R:1 pbc="T T T"
Si       2.06912322       0.41956524       0.93933943       0.00000000
Si      -0.58178106      -2.11333428       0.79769902       0.00000000
Si      -1.38585709       1.47611835       1.16755317       0.00000000
Si      -0.38100681       0.58329603      -2.25585925       0.00000000
Si       1.23232221       0.17762616       3.16812947       0.00000000
Si       1.60772526       1.91515014      -2.40021690       0.00000000
Si      -2.60525060      -2.32960032      -0.36675856       0.00000000
Si      -1.07788975       0.60338160       3.32621090       0.00000000
Si       2.66968665       2.38703886      -0.29807087       0.00000000
Si      -2.62611809       1.39760055      -2.25159421       0.00000000
