10
Lattice="16.28999089631971 0.0 0.0 0.0 16.28999089631971 0.0 0.0 0.0 34.395419527814205" Properties=species:S:1:pos:R:3:initial_magmoms:R:1 pbc="T T T"
Si      -1.30406337       1.33635015       1.47159853       0.00000000
Si       1.40825421      -1.39004199       1.43459935       0.00000000
Si      -1.97516250      -0.79539183      -1.22248495       0.00000000
Si       0.99753444       1.67553306      -1.50819669       0.00000000
Si       1.48181985       0.16299774      -3.44376561       0.00000000
Si      -2.66370985      -2.65411341       0.04175606       0.00000000
Si      -2.54486452       2.76917361       0.06127203       0.00000000
Si       2.77259058       2.61213964      -0.08017921       0.00000000
Si      -2.67040667      -0.01635516       2.83135341       0.00000000
Si       0.04471605       2.69321334       2.83324516       0.00000000
