10
Lattice="16.28999089631971 0.0 0.0 0.0 16.28999089631971 0.0 0.0 0.0 34.395419527814205" Properties=species:S:1:pos:R:3:initial_magmoms:R:1 pbc="T T T"
Si      -1.34857388      -1.34395758       1.35548985       0.00000000
Si      -1.42775957       1.24732530      -1.39176328       0.00000000
Si       1.37020010      -1.26436464      -1.43548332       0.00000000
Si       1.36350328       1.37339361       1.35411403       0.00000000
Si       2.05874745       0.59435694      -2.69972433       0.00000000
Si       0.34493520       2.34835011      -2.55256703       0.00000000
Si      -2.68915943       2.71804148      -0.00181608       0.00000000
Si       0.00473156      -2.70446580       2.71400649       0.00000000
Si      -2.69644106      -2.72438847      -0.02535632       0.00000000
Si      -2.70851195       0.01208718       2.71466000       0.00000000
