10
Lattice="16.28999089631971 0.0 0.0 0.0 16.28999089631971 0.0 0.0 0.0 34.395419527814205" Properties=species:S:1:pos:R:3:initial_magmoms:R:1 pbc="T T T"
Si      -0.68854735      -1.85872158       1.26424102       0.00000000
Si       1.97516250       0.79539183       1.22248495       0.00000000
Si      -1.71381226       1.75399317       0.14715731       0.00000000
Si      -0.27433989      -0.62146350      -2.48485290       0.00000000
Si      -0.53728004       1.64240667      -2.38689469       0.00000000
Si      -2.05874745      -0.59435694       2.69972433       0.00000000
Si       0.67109913       2.13174198       2.69408348       0.00000000
Si       2.00562480      -1.07950572      -2.67829285       0.00000000
Si      -2.03961004      -3.16146546      -0.25509980       0.00000000
Si      -3.48650702       0.65296836       1.30796106       0.00000000
