10
Lattice="16.28999089631971 0.0 0.0 0.0 16.28999089631971 0.0 0.0 0.0 34.395419527814205" Properties=species:S:1:pos:R:3:initial_magmoms:R:1 pbc="T T T"
Si      -1.28738241      -1.31846373      -1.38011698       0.00000000
Si       0.40560471      -1.59816303       1.62614755       0.00000000
Si       1.50588018       1.37165058      -1.18867197       0.00000000
Si       2.70071910      -1.33796286       1.26977641       0.00000000
Si      -2.56617999      -2.75043618       0.04192804       0.00000000
Si       0.06566499       2.65870719      -2.66602485       0.00000000
Si      -2.67835619      -0.02612916      -2.68284422       0.00000000
Si       0.06131556      -2.76040566      -2.68783156       0.00000000
Si       2.78919009      -0.05616792      -2.65852665       0.00000000
Si       0.08019567      -0.93043593       3.80857254       0.00000000
