10
Lattice="16.28999089631971 0.0 0.0 0.0 16.28999089631971 0.0 0.0 0.0 34.397273925272025" Properties=species:S:1:pos:R:3:initial_magmoms:R:1 pbc="T T T"
Si       1.29201398      -1.33869917      -1.41909473       0.00000000
Si      -1.33383695      -1.35552837       1.36410377       0.00000000
Si       1.38387003       1.35573525       1.35887539       0.00000000
Si      -1.33919636       1.34534223      -1.48409873       0.00000000
Si       2.34525045       0.55117215      -2.38986201       0.00000000
Si       0.53235753       2.11449087      -2.71102751       0.00000000
Si      -2.69227634      -2.71111051      -0.00899833       0.00000000
Si      -2.69142926      -0.00172674       2.71897875       0.00000000
Si      -2.69359583       2.72336220      -0.02951976       0.00000000
Si       0.02443465       2.71412577       2.71921953       0.00000000
