10
Lattice="16.28999089631971 0.0 0.0 0.0 16.28999089631971 0.0 0.0 0.0 34.397273925272025" Properties=species:S:1:pos:R:3:initial_magmoms:R:1 pbc="T T T"
Si       1.88721279       0.91595412       1.01060279       0.00000000
Si       0.13284495       0.25974405      -2.33124012       0.00000000
Si      -1.05323647      -1.88987132       0.97076729       0.00000000
Si      -1.81289292       1.56331872      -0.32116550       0.00000000
Si       0.41357052       2.15174610       2.40642087       0.00000000
Si      -2.34525045      -0.55117215       2.38986201       0.00000000
Si      -1.73648631       1.63730790      -2.72065188       0.00000000
Si      -0.83175763       3.44290779       0.93354598       0.00000000
Si       2.72932434       2.52089379      -0.60711020       0.00000000
Si      -0.48203739      -1.89183589      -3.30991191       0.00000000
