10
Lattice="16.28999089631971 0.0 0.0 0.0 16.28999089631971 0.0 0.0 0.0 34.397273925272025" Properties=species:S:1:pos:R:3:initial_magmoms:R:1 pbc="T T T"
Si       0.19938471       2.27147760       0.42367146       0.00000000
Si       2.09466920      -0.88029531       0.47956706       0.00000000
Si      -1.56473988      -0.86990229       1.48623824       0.00000000
Si      -0.86776993      -0.82658718      -1.99521499       0.00000000
Si      -2.13454779       2.83491612       0.18344076       0.00000000
Si       1.11430442       2.10541734       2.65461110       0.00000000
Si       1.52018606      -2.94601392       1.38658928       0.00000000
Si       1.83637496       2.85801534      -1.25656752       0.00000000
Si      -3.12861246      -0.21144420      -1.83052075       0.00000000
Si       2.74884302       0.41992362       2.33853437       0.00000000
