10
Lattice="16.28999089631971 0.0 0.0 0.0 16.28999089631971 0.0 0.0 0.0 34.397273925272025" Properties=species:S:1:pos:R:3:initial_magmoms:R:1 pbc="T T T"
Si       1.96271694      -0.81341509       0.98537926       0.00000000
Si      -1.06070706      -1.66432731      -1.37578853       0.00000000
Si       1.61919342       1.04607864      -1.45015548       0.00000000
Si      -1.30836393       1.37614662       1.55795660       0.00000000
Si       0.24666318       2.34546678      -2.89002617       0.00000000
Si      -2.46229214      -0.37216460      -2.87079809       0.00000000
Si      -1.69028298      -0.26980150       3.40051640       0.00000000
Si      -2.90363223       2.56606596       0.10955538       0.00000000
Si      -2.64589673      -2.88288107      -0.02669230       0.00000000
Si       2.96870589      -2.63714642      -0.42466898       0.00000000
