10
Lattice="16.28999089631971 0.0 0.0 0.0 16.28999089631971 0.0 0.0 0.0 34.397273925272025" Properties=species:S:1:pos:R:3:initial_magmoms:R:1 pbc="T T T"
Si      -1.37253024       1.29938814      -1.43987069       0.00000000
Si      -1.61919342      -1.04607864       1.45015548       0.00000000
Si       1.34579835      -1.40481050      -1.43409195       0.00000000
Si       1.72214622       1.16212860       1.25828738       0.00000000
Si       0.34352352      -1.85949373       2.43553474       0.00000000
Si       0.45975267       2.57004072       2.65591820       0.00000000
Si      -2.67990048      -2.71040595       0.07436695       0.00000000
Si       2.96587143      -2.41992185      -0.00787698       0.00000000
Si      -2.89960371       2.50629795      -0.02793060       0.00000000
Si      -0.01210347       2.65856058      -2.80647515       0.00000000
