10
Lattice="16.28999089631971 0.0 0.0 0.0 16.28999089631971 0.0 0.0 0.0 34.397273925272025" Properties=species:S:1:pos:R:3:initial_magmoms:R:1 pbc="T T T"
Si      -1.88721279      -0.91595412      -1.01060279       0.00000000
Si       1.23887079      -1.48724442       1.35888914       0.00000000
Si      -1.47364227       1.23579198       1.39581808       0.00000000
Si       0.84211155       1.60493967      -1.61771299       0.00000000
Si       2.63863791       2.59007742      -0.09940130       0.00000000
Si      -0.85729383       3.35414358      -1.32219287       0.00000000
Si      -2.71897042       2.52695367      -0.07705682       0.00000000
Si       2.58116679      -0.11095119       2.73748106       0.00000000
Si      -0.13825323       2.60692128       2.74085199       0.00000000
Si      -1.75436784      -0.65621007      -3.34184291       0.00000000
