10
Lattice="16.28999089631971 0.0 0.0 0.0 16.28999089631971 0.0 0.0 0.0 34.397273925272025" Properties=species:S:1:pos:R:3:initial_magmoms:R:1 pbc="T T T"
Si      -1.99282086       0.88070256      -0.83399677       0.00000000
Si       1.26371304       1.94044851       0.30266178       0.00000000
Si      -0.20875635      -1.75633893       1.53573595       0.00000000
Si       1.17605655      -0.92046645      -1.86199427       0.00000000
Si       1.95815574      -2.50844823       0.97426893       0.00000000
Si      -2.05550478      -0.36106785      -2.77249062       0.00000000
Si       0.02831202       0.21074373      -3.55705848       0.00000000
Si       1.40901984      -3.19306806      -1.28666515       0.00000000
Si       0.29494674       3.12880401       2.05338081       0.00000000
Si      -1.61419239       3.21457086      -1.13036385       0.00000000
