10
Lattice="16.28999089631971 0.0 0.0 0.0 16.28999089631971 0.0 0.0 0.0 34.397273925272025" Properties=species:S:1:pos:R:3:initial_magmoms:R:1 pbc="T T T"
Si       1.40981805      -1.22679990      -1.36632928       0.00000000
Si       1.83857085       0.97878465       1.12200531       0.00000000
Si      -1.31900130       1.49804469      -1.32549969       0.00000000
Si      -0.77879232      -1.99549242       1.12142055       0.00000000
Si       0.55869813       1.50167736       3.04742819       0.00000000
Si       0.04510701      -2.57248422      -2.71683580       0.00000000
Si       2.79894780      -2.50505991       0.05476049       0.00000000
Si      -2.72350881      -2.64704355      -0.00316455       0.00000000
Si      -2.67514380       0.14963994      -2.70950918       0.00000000
Si       2.75789700       0.14141349      -2.70957797       0.00000000
