10
Lattice="16.28999089631971 0.0 0.0 0.0 16.28999089631971 0.0 0.0 0.0 34.397273925272025" Properties=species:S:1:pos:R:3:initial_magmoms:R:1 pbc="T T T"
Si      -1.83848940       1.37707515      -0.42160762       0.00000000
Si       0.96894549       0.27137511       2.13882369       0.00000000
Si       1.79888841       0.66666825      -1.52964763       0.00000000
Si      -1.55698191      -1.94105124      -0.14863070       0.00000000
Si      -2.09505690       0.79858467      -2.84224833       0.00000000
Si       2.24684712      -1.38569256      -2.56235756       0.00000000
Si      -3.27526740       0.96731649       1.46071545       0.00000000
Si       1.33703433       2.60201799       2.57831790       0.00000000
Si      -1.38440565       3.66279021       0.13194802       0.00000000
Si      -1.09920033      -3.38138046       1.67931025       0.00000000
