10
Lattice="16.28999089631971 0.0 0.0 0.0 16.28999089631971 0.0 0.0 0.0 34.397273925272025" Properties=species:S:1:pos:R:3:initial_magmoms:R:1 pbc="T T T"
Si      -0.42595092      -0.07105698       2.36240609       0.00000000
Si       0.91598670       1.40312286      -1.74325482       0.00000000
Si       1.69002234      -1.67619213       0.68295826       0.00000000
Si      -2.12134896       0.87032583       0.96549762       0.00000000
Si      -2.37755808       0.03021795      -1.66293714       0.00000000
Si      -1.98765693      -2.21008059      -1.20645066       0.00000000
Si      -0.75000789       0.64865151      -3.23699167       0.00000000
Si       3.59249886      -0.31348476      -0.38862062       0.00000000
Si       2.33595342      -2.79055845      -1.22075993       0.00000000
Si       2.96165232       0.51538302      -2.46047278       0.00000000
