10
Lattice="16.28999089631971 0.0 0.0 0.0 16.28999089631971 0.0 0.0 0.0 34.397273925272025" Properties=species:S:1:pos:R:3:initial_magmoms:R:1 pbc="T T T"
Si      -1.35920502      -1.35516510      -1.39181767       0.00000000
Si       1.35599589       1.35864048      -1.39398470       0.00000000
Si      -1.31595507       1.42478516       1.48400242       0.00000000
Si       1.40972031      -1.34636850       1.52373129       0.00000000
Si       2.71345788       0.45196605       2.43512197       0.00000000
Si       2.70505224      -2.71221984      -0.00791138       0.00000000
Si      -2.71754015       2.71694787      -0.01100713       0.00000000
Si       2.70974376       2.73038060      -0.02445648       0.00000000
Si      -2.72236036      -2.72046258      -0.02235824       0.00000000
Si      -0.00534312      -2.70945054      -2.75298736       0.00000000
