10
Lattice="16.28999089631971 0.0 0.0 0.0 16.28999089631971 0.0 0.0 0.0 34.397273925272025" Properties=species:S:1:pos:R:3:initial_magmoms:R:1 pbc="T T T"
Si       1.89351702       0.68784525      -1.30262549       0.00000000
Si      -1.86430905      -0.54595935      -1.42649014       0.00000000
Si       0.53543601      -2.09280888       1.09606975       0.00000000
Si      -0.54442809       1.59141897       1.77727374       0.00000000
Si       2.31547689      -1.33503066      -2.53287908       0.00000000
Si      -2.80632717       1.66022793      -1.96666524       0.00000000
Si       2.83530708      -1.82475693       1.81978879       0.00000000
Si      -3.35850930      -1.96089246      -0.21653096       0.00000000
Si      -2.64785805       0.90331308       2.75766539       0.00000000
Si      -1.26345240      -2.75947713       2.62571737       0.00000000
