10
Lattice="16.28999089631971 0.0 0.0 0.0 16.28999089631971 0.0 0.0 0.0 34.397273925272025" Properties=species:S:1:pos:R:3:initial_magmoms:R:1 pbc="T T T"
Si      -0.02163312       0.63949769      -2.27789194       0.00000000
Si       0.89199153       1.73481074       1.40107196       0.00000000
Si      -1.78917957      -0.85129911       1.41780968       0.00000000
Si       2.01285756      -1.95439275       0.19179030       0.00000000
Si      -0.51064263      -2.22265647       2.89802840       0.00000000
Si       2.22290082       0.49099689       2.90415112       0.00000000
Si      -3.23770266      -1.96965648      -0.09287269       0.00000000
Si       2.22770637       3.16761398       0.07773788       0.00000000
Si       0.79188948      -3.55323996       1.44917313       0.00000000
Si       3.57005124      -0.83476476       1.50914482       0.00000000
