10
Lattice="16.28999089631971 0.0 0.0 0.0 16.28999089631971 0.0 0.0 0.0 34.397273925272025" Properties=species:S:1:pos:R:3:initial_magmoms:R:1 pbc="T T T"
Si       1.35591444      -1.35645201       1.36075692       0.00000000
Si      -1.34438112      -1.36340784      -1.36855134       0.00000000
Si      -1.35848826       1.35987291       1.36041294       0.00000000
Si       1.35374787       1.36863693      -1.38774159       0.00000000
Si       2.71350675      -2.71025364       0.00588194       0.00000000
Si      -2.71839375      -2.71149493       0.00196065       0.00000000
Si      -0.00158013      -2.71235668       2.71793652       0.00000000
Si       2.71456560       2.71625976      -0.00030958       0.00000000
Si       2.71347417       0.00175932       2.71790212       0.00000000
Si      -2.71635750       0.00171045       2.71790212       0.00000000
