10
Lattice="16.28999089631971 0.0 0.0 0.0 16.28999089631971 0.0 0.0 0.0 34.397273925272025" Properties=species:S:1:pos:R:3:initial_magmoms:R:1 pbc="T T T"
Si       1.35612621       1.35650088       1.35690442       0.00000000
Si       1.35408996      -1.35670450      -1.35903705       0.00000000
Si      -1.35845568      -1.35798979       1.35704201       0.00000000
Si      -1.35653346       1.35624024      -1.36099770       0.00000000
Si       2.71331127      -0.00048870       2.71439359       0.00000000
Si       2.71438641      -2.71383907       0.00006879       0.00000000
Si      -0.00174303       2.71414206       2.71411842       0.00000000
Si       2.71399545       2.71466334      -0.00058475       0.00000000
Si      -2.71593396      -0.00063531       2.71425601       0.00000000
Si      -0.00128691      -2.71550013       2.71470317       0.00000000
