10
Lattice="16.28999089631971 0.0 0.0 0.0 16.28999089631971 0.0 0.0 0.0 34.397273925272025" Properties=species:S:1:pos:R:3:initial_magmoms:R:1 pbc="T T T"
Si       1.35540945      -1.35346884      -1.35810833       0.00000000
Si      -1.36112724      -1.33105380       1.37706123       0.00000000
Si      -1.35925389       1.36060547      -1.35573491       0.00000000
Si       1.33863075       1.35831347       1.38308076       0.00000000
Si      -2.45570121       0.35559392       2.79870136       0.00000000
Si       0.07623720      -2.63523120       2.74834372       0.00000000
Si       2.71127502      -2.71189194       0.00110071       0.00000000
Si      -0.00245979      -2.71154985      -2.71415281       0.00000000
Si       2.71191033       0.00258363      -2.71408402       0.00000000
Si       2.70909216       2.71960850       0.00653549       0.00000000
