10
Lattice="16.28999089631971 0.0 0.0 0.0 16.28999089631971 0.0 0.0 0.0 34.397273925272025" Properties=species:S:1:pos:R:3:initial_magmoms:R:1 pbc="T T T"
Si       1.35752715       1.35747828       1.35752357       0.00000000
Si      -1.35801585      -1.35711990       1.35772996       0.00000000
Si       1.35988920      -1.35839052      -1.35724839       0.00000000
Si      -1.36164852       1.35826020      -1.36044734       0.00000000
Si       2.71459818      -2.71306692       0.00048156       0.00000000
Si       2.71471221       0.00177561       2.71439359       0.00000000
Si      -2.71580364      -2.71409319       0.00106632       0.00000000
Si      -0.00021177      -2.71489140       2.71515033       0.00000000
Si      -2.71531494       0.00073305       2.71532232       0.00000000
Si       0.00000000       2.71588509       2.71497835       0.00000000
