10
Lattice="16.28999089631971 0.0 0.0 0.0 16.28999089631971 0.0 0.0 0.0 34.397273925272025" Properties=species:S:1:pos:R:3:initial_magmoms:R:1 pbc="T T T"
Si      -0.90363888      -1.75993902      -1.27906335       0.00000000
Si       1.88801100       0.94846896      -1.18195979       0.00000000
Si      -1.86401583       1.72390554      -0.21181853       0.00000000
Si       1.61249823      -2.36073051       0.84283687       0.00000000
Si       0.43943904       2.25368892      -2.67146577       0.00000000
Si      -2.29276863      -0.48167901      -2.70015311       0.00000000
Si       1.67268978       0.81010170       3.06779138       0.00000000
Si      -2.27395368      -1.31181741       2.52011768       0.00000000
Si      -2.55834450      -2.79572238       0.03216147       0.00000000
Si      -0.86488497       3.67982955      -1.30001130       0.00000000
