10
Lattice="16.28999089631971 0.0 0.0 0.0 16.28999089631971 0.0 0.0 0.0 34.397273925272025" Properties=species:S:1:pos:R:3:initial_magmoms:R:1 pbc="T T T"
Si       0.49907673      -2.12853285      -0.84706774       0.00000000
Si       2.08881783       1.08976842       0.11829229       0.00000000
Si      -0.92848113      -0.75137625       2.08199936       0.00000000
Si      -1.11057075       1.27477395      -1.73293563       0.00000000
Si       1.27303092       1.70466705       2.31081015       0.00000000
Si      -3.57163137       1.28158317       0.43151404       0.00000000
Si      -2.94078483       0.45271539       2.50336620       0.00000000
Si       1.76757903      -3.39553647       0.68653557       0.00000000
Si      -2.29847013      -0.28044864      -3.14680197       0.00000000
Si       0.51644187      -0.13258431       3.92225454       0.00000000
