10
Lattice="16.28999089631971 0.0 0.0 0.0 16.28999089631971 0.0 0.0 0.0 34.397273925272025" Properties=species:S:1:pos:R:3:initial_magmoms:R:1 pbc="T T T"
Si       1.34687349       1.36036065       1.36013089       0.00000000
Si       1.34715042      -1.32576165      -1.39500630       0.00000000
Si      -1.36612827      -1.35441576       1.36061245       0.00000000
Si      -1.33090929       1.24381385      -1.50307916       0.00000000
Si      -0.21004326      -2.44538964      -2.71236082       0.00000000
Si      -2.22290082      -0.49099689      -2.90415112       0.00000000
Si       2.60491761       0.08961701      -2.77836022       0.00000000
Si      -2.70604593       2.69701217      -0.02042167       0.00000000
Si       2.70767493      -2.69918784      -0.00369771       0.00000000
Si       2.70716994       0.00322609       2.71923673       0.00000000
