10
Lattice="16.28999089631971 0.0 0.0 0.0 16.28999089631971 0.0 0.0 0.0 34.397273925272025" Properties=species:S:1:pos:R:3:initial_magmoms:R:1 pbc="T T T"
Si      -1.48923180      -1.25293378      -1.31819856       0.00000000
Si       1.32618519      -1.33653099       1.45111173       0.00000000
Si      -1.37326329       1.36589695       1.44978055       0.00000000
Si       1.17540495       1.39090210      -1.64789662       0.00000000
Si      -2.30120685       0.53738755      -2.77640301       0.00000000
Si      -0.08693973      -2.74831263      -2.52740100       0.00000000
Si       2.77187382      -2.59982928       0.05219445       0.00000000
Si      -0.61181982       2.25067201      -3.01852556       0.00000000
Si       2.67926517       2.71992175      -0.02398867       0.00000000
Si      -2.74699899      -2.66831244       0.06515535       0.00000000
