10
Lattice="16.28999089631971 0.0 0.0 0.0 16.28999089631971 0.0 0.0 0.0 34.397273925272025" Properties=species:S:1:pos:R:3:initial_magmoms:R:1 pbc="T T T"
Si      -1.23206157      -1.55246373       1.28164314       0.00000000
Si      -1.41822369       1.17735160      -1.53246820       0.00000000
Si       0.72190764       2.03427565       1.09675769       0.00000000
Si       1.31918049      -1.53355104      -1.51210501       0.00000000
Si       2.65831623       2.62133467      -0.16400629       0.00000000
Si      -2.82501180       2.53652893      -0.06294705       0.00000000
Si      -0.04776228       2.53864663      -2.90901348       0.00000000
Si      -2.68061724      -2.81619306      -0.16720524       0.00000000
Si       2.66845301      -0.18061767      -2.91135249       0.00000000
Si      -0.98701110       3.70333276       0.99989491       0.00000000
