10
Lattice="16.28999089631971 0.0 0.0 0.0 16.28999089631971 0.0 0.0 0.0 34.397273925272025" Properties=species:S:1:pos:R:3:initial_magmoms:R:1 pbc="T T T"
Si       0.49909302       0.28137717      -2.25570569       0.00000000
Si      -2.25937413      -0.04974966       0.57526033       0.00000000
Si       0.81521676      -1.88087598       1.14591142       0.00000000
Si       1.07497710       2.02277817       0.61815376       0.00000000
Si       2.65486275      -0.65961794      -2.20441933       0.00000000
Si      -1.97594442      -0.25384707       2.89690563       0.00000000
Si      -0.29600559       2.52077976      -2.49679632       0.00000000
Si      -2.96842896       2.18242017       0.22853562       0.00000000
Si      -0.53359524      -2.09819875       3.09166311       0.00000000
Si      -0.00322542       3.77308980      -0.52170375       0.00000000
