10
Lattice="16.28999089631971 0.0 0.0 0.0 16.28999089631971 0.0 0.0 0.0 34.397273925272025" Properties=species:S:1:pos:R:3:initial_magmoms:R:1 pbc="T T T"
Si       1.35743905      -1.35669636       1.35769556       0.00000000
Si       1.35830418       1.35764118      -1.35690442       0.00000000
Si      -1.35718506       1.35804843       1.35762676       0.00000000
Si      -1.35755973      -1.35821133      -1.35714520       0.00000000
Si       0.00003258      -2.71201296      -2.71202018       0.00000000
Si      -2.71378368       0.00144981       2.71459998       0.00000000
Si       2.71440011      -2.71423491       0.00030958       0.00000000
Si      -2.71505430      -2.71411600       0.00003440       0.00000000
Si       0.00140094      -2.71445646       2.71515033       0.00000000
Si       0.00140094       2.71402803       2.71559750       0.00000000
