10
Lattice="16.28999089631971 0.0 0.0 0.0 16.28999089631971 0.0 0.0 0.0 34.397273925272025" Properties=species:S:1:pos:R:3:initial_magmoms:R:1 pbc="T T T"
Si      -1.11720078      -1.81333764       1.05290114       0.00000000
Si      -1.52290323       1.09177209      -1.48341766       0.00000000
Si       1.18384317      -1.60021557      -1.49662622       0.00000000
Si      -0.33342372       1.91656737       2.02864916       0.00000000
Si       0.59171796      -3.48239475       1.14976392       0.00000000
Si      -0.17813115       2.44921779      -2.85762392       0.00000000
Si      -2.84956083       2.51735886      -0.09325106       0.00000000
Si       2.53616243      -0.26336043      -2.86223316       0.00000000
Si       2.52812655      -2.89533573      -0.11100006       0.00000000
Si       2.89089738       2.73083931      -0.14838992       0.00000000
