10
Lattice="16.28999089631971 0.0 0.0 0.0 16.28999089631971 0.0 0.0 0.0 34.397273925272025" Properties=species:S:1:pos:R:3:initial_magmoms:R:1 pbc="T T T"
Si      -2.26108458      -0.28411389       0.42497856       0.00000000
Si       0.53204769       0.95513157      -2.07095783       0.00000000
Si       0.29278017       1.25231004       1.97509257       0.00000000
Si       0.79509861      -2.23940259       0.24109063       0.00000000
Si       2.66680332       1.67702292      -1.29846342       0.00000000
Si       1.37098269      -0.49800159       3.11495007       0.00000000
Si       0.29600559      -2.52077976       2.49679632       0.00000000
Si      -0.69895503      -3.27416945      -1.24363413       0.00000000
Si      -2.77298154      -2.47985928      -0.30183625       0.00000000
Si      -2.67242337      -0.33835959       2.72533193       0.00000000
