10
Lattice="16.28999089631971 0.0 0.0 0.0 16.28999089631971 0.0 0.0 0.0 34.397273925272025" Properties=species:S:1:pos:R:3:initial_magmoms:R:1 pbc="T T T"
Si      -1.35236322      -1.35720135      -1.36436863       0.00000000
Si       1.36042677       1.35917244      -1.36660446       0.00000000
Si       1.37253024      -1.29938814       1.43987069       0.00000000
Si      -1.52707347       1.20690981       1.41194009       0.00000000
Si       0.00669519       2.50132950       2.66771647       0.00000000
Si      -0.24666318      -2.34546678       2.89002617       0.00000000
Si      -2.70541714       2.70542691      -0.00089433       0.00000000
Si       2.71832859      -2.70419864       0.00577875       0.00000000
Si      -2.70895532      -2.71763138       0.01922809       0.00000000
Si       2.72313414       2.70857088      -0.00650109       0.00000000
