10
Lattice="16.28999089631971 0.0 0.0 0.0 16.28999089631971 0.0 0.0 0.0 34.397273925272025" Properties=species:S:1:pos:R:3:initial_magmoms:R:1 pbc="T T T"
Si       2.10285981       0.91263096       0.50381715       0.00000000
Si      -0.01024641      -2.34268119      -0.26719817       0.00000000
Si      -1.26850230       1.26700362      -1.53360332       0.00000000
Si      -2.37519603       0.33663285       1.89377737       0.00000000
Si      -3.16811178      -0.97349040       0.09737874       0.00000000
Si       0.00589698       1.01947707      -3.43893818       0.00000000
Si       3.51271600      -0.00255753      -1.16961116       0.00000000
Si      -2.97579204      -0.47943099      -2.21325943       0.00000000
Si      -2.12369472      -3.04184799       0.47272200       0.00000000
Si       2.63036326       0.20846313       2.68715094       0.00000000
