10
Lattice="16.28999089631971 0.0 0.0 0.0 16.28999089631971 0.0 0.0 0.0 34.397273925272025" Properties=species:S:1:pos:R:3:initial_magmoms:R:1 pbc="T T T"
Si      -1.35231926      -1.33685514       1.36560694       0.00000000
Si      -1.35225410       1.35488817      -1.35618208       0.00000000
Si       1.36274386      -1.35684297      -1.35652605       0.00000000
Si       1.36726433       1.34605899       1.36550374       0.00000000
Si       2.54560800      -0.15245811       2.77833816       0.00000000
Si      -0.00803588      -2.63197530       2.75123310       0.00000000
Si      -2.53616243       0.26336043       2.86223316       0.00000000
Si      -2.71084010      -0.00109143      -2.71415281       0.00000000
Si      -2.71429358       2.71257822       0.00460924       0.00000000
Si       0.00354446       2.71365336      -2.71394643       0.00000000
