10
Lattice="16.28999089631971 0.0 0.0 0.0 16.28999089631971 0.0 0.0 0.0 34.397273925272025" Properties=species:S:1:pos:R:3:initial_magmoms:R:1 pbc="T T T"
Si       0.50282343       1.51580079      -1.67927585       0.00000000
Si       1.15932672      -1.93766292      -0.70363103       0.00000000
Si       1.71905112       0.94452678       1.32605005       0.00000000
Si      -1.97363124       0.24307938       1.36949383       0.00000000
Si      -1.57781682      -1.80053370       2.53432376       0.00000000
Si      -2.26913184      -1.55862720      -2.15444006       0.00000000
Si      -0.78048648       3.32172648      -0.89119947       0.00000000
Si       0.79807968      -0.67391730      -3.39009402       0.00000000
Si       2.84288193      -0.96845679      -2.12300093       0.00000000
Si       1.27925370       0.12095325       3.45111482       0.00000000
