10
Lattice="16.28999089631971 0.0 0.0 0.0 16.28999089631971 0.0 0.0 0.0 34.397273925272025" Properties=species:S:1:pos:R:3:initial_magmoms:R:1 pbc="T T T"
Si       1.23206157       1.55246373      -1.28164314       0.00000000
Si      -0.60188292       0.55926828       2.22354422       0.00000000
Si      -1.44855567      -1.26372933      -1.44884838       0.00000000
Si      -0.20981520      -1.91638818       2.44747060       0.00000000
Si       2.55124206       0.01891269      -2.79374815       0.00000000
Si      -0.14423166      -2.68986996      -2.82030286       0.00000000
Si      -0.18616212       2.72981534      -2.81411135       0.00000000
Si      -2.88592011       0.04044807      -2.82013087       0.00000000
Si      -2.44768653      -3.21965334      -0.36065562       0.00000000
Si       1.95396921       3.58673939      -0.18488545       0.00000000
