10
Lattice="16.28999089631971 0.0 0.0 0.0 16.28999089631971 0.0 0.0 0.0 34.397273925272025" Properties=species:S:1:pos:R:3:initial_magmoms:R:1 pbc="T T T"
Si       2.17824083      -0.93393828      -0.02940969       0.00000000
Si       0.32378755       2.15479952       0.95923731       0.00000000
Si      -0.89575452       0.37449979      -2.17745185       0.00000000
Si      -1.45790613      -1.24581033       1.44994910       0.00000000
Si       1.30447292      -3.03116175      -0.53126619       0.00000000
Si       0.14296104       2.45404682      -2.57601328       0.00000000
Si      -0.63957798      -0.55112328       3.50140366       0.00000000
Si      -0.58815045       1.78652823       3.11099438       0.00000000
Si      -0.55573335      -3.12592068      -1.96608048       0.00000000
Si       2.98679498      -0.52114968      -2.22805027       0.00000000
