10
Lattice="16.28999089631971 0.0 0.0 0.0 16.28999089631971 0.0 0.0 0.0 34.397273925272025" Properties=species:S:1:pos:R:3:initial_magmoms:R:1 pbc="T T T"
Si       1.65364677      -1.39031892      -0.93777340       0.00000000
Si       1.56274857       1.64885751       0.64646273       0.00000000
Si      -1.32113529       0.80159832      -1.80142064       0.00000000
Si      -1.30090311      -1.32923142       1.51090110       0.00000000
Si       2.84726394       0.17785422       1.92514770       0.00000000
Si      -2.83856508       0.28338084       2.25113085       0.00000000
Si      -1.59923817      -1.26819279      -3.01939439       0.00000000
Si       2.09344419      -0.56674539      -3.06283817       0.00000000
Si      -2.48880249      -2.88445401       0.09703476       0.00000000
Si       3.65731677      -1.22520348       0.25392082       0.00000000
