10
Lattice="16.28999089631971 0.0 0.0 0.0 16.28999089631971 0.0 0.0 0.0 34.397273925272025" Properties=species:S:1:pos:R:3:initial_magmoms:R:1 pbc="T T T"
Si       1.28451537      -1.47100329       1.27868498       0.00000000
Si      -0.26345817       1.94715089       1.26458209       0.00000000
Si      -1.56274857      -1.64885751      -0.64646273       0.00000000
Si       1.52476029       0.83075742      -1.69533939       0.00000000
Si       0.09089820      -3.03917643      -1.58423613       0.00000000
Si       2.04654528       2.26608139       1.70971746       0.00000000
Si       2.86190443       0.04461831       2.12224419       0.00000000
Si       2.09456820      -2.87406099      -0.39254191       0.00000000
Si       0.70643214       0.13607037      -3.74679395       0.00000000
Si      -2.88388386      -0.84725919      -2.44788337       0.00000000
