10
Lattice="16.28999089631971 0.0 0.0 0.0 16.28999089631971 0.0 0.0 0.0 34.397273925272025" Properties=species:S:1:pos:R:3:initial_magmoms:R:1 pbc="T T T"
Si      -1.35576524      -1.35752293      -1.35752357       0.00000000
Si      -1.35696106       1.35753855       1.35738598       0.00000000
Si       1.35792788       1.35766887      -1.35680123       0.00000000
Si       1.35919850      -1.35857351       1.35721400       0.00000000
Si      -2.71436753       0.00222196      -2.71232976       0.00000000
Si      -2.71299917      -0.00022154       2.71484076       0.00000000
Si      -2.71440011       2.71423491      -0.00030958       0.00000000
Si      -2.71407431      -2.71505008      -0.00003440       0.00000000
Si       2.71558535       0.00047730       2.71394643       0.00000000
Si      -0.00042028      -2.71513153       2.71470317       0.00000000
