10
Lattice="16.28999089631971 0.0 0.0 0.0 16.28999089631971 0.0 0.0 0.0 34.397273925272025" Properties=species:S:1:pos:R:3:initial_magmoms:R:1 pbc="T T T"
Si      -0.40609830       0.22273317       2.36240609       0.00000000
Si       2.46375824       0.06380793      -0.27270174       0.00000000
Si      -0.48788550      -2.24595117      -0.93423048       0.00000000
Si      -2.02054385       1.21353984      -0.80792362       0.00000000
Si       1.25891726       2.36996694      -0.62720024       0.00000000
Si      -0.88353213       2.51138043       2.47643312       0.00000000
Si      -2.63777195      -0.61032114       2.56483416       0.00000000
Si      -0.20625909       3.69284526       0.62241902       0.00000000
Si      -3.70409906       0.24433371       0.61144628       0.00000000
Si      -0.98459529      -3.68437446       0.90626548       0.00000000
