10
Lattice="16.28999089631971 0.0 0.0 0.0 16.28999089631971 0.0 0.0 0.0 34.397273925272025" Properties=species:S:1:pos:R:3:initial_magmoms:R:1 pbc="T T T"
Si      -1.11525154      -1.53275868      -1.38425027       0.00000000
Si       0.46144683      -0.92826936       2.10662782       0.00000000
Si       2.27418337      -0.43678377      -0.38941176       0.00000000
Si      -0.33496475       2.37430008       0.18209927       0.00000000
Si      -3.01614793      -0.14343345      -1.50016915       0.00000000
Si       2.53039249       0.40332411       2.23902300       0.00000000
Si      -2.45428954       2.26883862       1.18457398       0.00000000
Si      -0.48998039       3.06427932      -2.09359125       0.00000000
Si       2.66408452      -2.67708231       0.06707472       0.00000000
Si      -2.06736946       1.54865772      -2.93715046       0.00000000
