10
Lattice="16.28999089631971 0.0 0.0 0.0 16.28999089631971 0.0 0.0 0.0 34.397273925272025" Properties=species:S:1:pos:R:3:initial_magmoms:R:1 pbc="T T T"
Si      -0.38990115       2.24029854      -0.45648648       0.00000000
Si      -0.12694797      -1.41980382      -1.88094718       0.00000000
Si      -1.36775727      -0.53623422       1.86113434       0.00000000
Si       1.98765693       2.21008059       1.20645066       0.00000000
Si      -2.20263769       1.74881295       2.03955310       0.00000000
Si       1.23764904       2.85873210      -2.03054101       0.00000000
Si       1.06699500      -3.37913244      -1.13872239       0.00000000
Si      -0.13369203       3.08040642       2.17194828       0.00000000
Si      -2.66408452       2.67708231      -0.06707472       0.00000000
Si      -2.48875525      -1.95421356      -2.16861174       0.00000000
