10
Lattice="10.86 0.0 0.0 0.0 10.86 0.0 0.0 0.0 10.86" Properties=species:S:1:pos:R:3:initial_magmoms:R:1 pbc="T T T"
Si       1.04985792      -1.11449664      -1.59645258       0.00000000
Si       1.04985792       1.60050336       1.11854742       0.00000000
Si      -1.66514208      -1.11449664       1.11854742       0.00000000
Si       2.40735792      -2.47199664      -0.23895258       0.00000000
Si       2.40735792       0.24300336       2.47604742       0.00000000
Si      -0.30764208      -2.47199664       2.47604742       0.00000000
Si       0.01585560      -2.60390220      -2.78514474       0.00000000
Si       2.40735792       0.24300336      -2.95395258       0.00000000
Si       2.40735792       2.95800336      -0.23895258       0.00000000
Si      -0.30764208       2.95800336       2.47604742       0.00000000
