10
Lattice="10.86 0.0 0.0 0.0 10.86 0.0 0.0 0.0 10.86" Properties=species:S:1:pos:R:3:initial_magmoms:R:1 pbc="T T T"
Si       1.44176274       1.27830888       1.25385216       0.00000000
Si      -1.27323726       1.27830888      -1.46114784       0.00000000
Si       1.44176274      -1.43669112      -1.46114784       0.00000000
Si       0.08426274       2.63580888       2.61135216       0.00000000
Si      -2.63073726       2.63580888      -0.10364784       0.00000000
Si      -2.81265312      -0.12656244       2.48147742       0.00000000
Si       2.79926274      -0.07919112       2.61135216       0.00000000
Si       2.79926274       2.63580888      -0.10364784       0.00000000
Si       0.08426274       2.63580888      -2.81864784       0.00000000
Si       2.79926274      -2.79419112      -0.10364784       0.00000000
