10
Lattice="16.28999089631971 0.0 0.0 0.0 16.28999089631971 0.0 0.0 0.0 34.24959146834617" Properties=species:S:1:pos:R:3:initial_magmoms:R:1 pbc="T T T"
Si      -1.26320944       1.39753539      -1.40863511       0.00000000
Si      -1.35953221      -1.34567780       1.36954603       0.00000000
Si       1.35507805       1.36581876       1.36653206       0.00000000
Si       1.37744096      -1.41322755      -1.39929182       0.00000000
Si       0.69316159       2.10344625      -2.77357598       0.00000000
Si      -2.34548446      -0.24109200      -2.80912707       0.00000000
Si       2.37927433       0.21781359      -2.85351457       0.00000000
Si      -2.71658695      -2.69700904      -0.00956934       0.00000000
Si      -0.00407100      -2.70410688       2.72637860       0.00000000
Si       2.72789662      -2.70711197       0.00784316       0.00000000
