10
Lattice="16.28999089631971 0.0 0.0 0.0 16.28999089631971 0.0 0.0 0.0 34.24959146834617" Properties=species:S:1:pos:R:3:initial_magmoms:R:1 pbc="T T T"
Si      -2.00997260      -0.89479341       0.78959052       0.00000000
Si       0.73953342       0.66121110       2.14577235       0.00000000
Si       0.95817780      -1.75860324      -1.27473626       0.00000000
Si       0.40544181       1.95883992      -1.31672628       0.00000000
Si      -0.88019757      -2.94169707       1.36929943       0.00000000
Si       2.77449651       1.48906890       1.49427626       0.00000000
Si       3.13391907      -0.89981073      -1.59555236       0.00000000
Si      -3.35421593      -1.05865452      -1.07598577       0.00000000
Si      -1.75893719       2.91750220      -1.39717862       0.00000000
Si       2.21988717       3.01929841      -0.18785911       0.00000000
