10
Lattice="16.28999089631971 0.0 0.0 0.0 16.28999089631971 0.0 0.0 0.0 34.24959146834617" Properties=species:S:1:pos:R:3:initial_magmoms:R:1 pbc="T T T"
Si      -1.34424333      -0.16386111      -1.86557629       0.00000000
Si       2.00997260       0.89479341      -0.78959052       0.00000000
Si       1.12977503      -2.04690366       0.57970891       0.00000000
Si      -1.04317155       1.04725152       1.91270375       0.00000000
Si       2.74950602       1.55600451       1.35618183       0.00000000
Si      -0.62524278      -0.81050895       3.34711170       0.00000000
Si      -1.37566674       2.11677147      -2.56824130       0.00000000
Si       1.58781725      -1.71165546       2.85429405       0.00000000
Si       2.96815040      -0.86380983      -2.06432678       0.00000000
Si      -0.57375823      -1.97977257      -3.15767710       0.00000000
