10
Lattice="16.28999089631971 0.0 0.0 0.0 16.28999089631971 0.0 0.0 0.0 34.24959146834617" Properties=species:S:1:pos:R:3:initial_magmoms:R:1 pbc="T T T"
Si       1.12643721      -1.51249589      -1.36292900       0.00000000
Si      -1.48598520      -1.35190907       1.19222895       0.00000000
Si      -1.60265092       1.22712765      -1.34844142       0.00000000
Si       1.70970066       0.89420567       1.52838887       0.00000000
Si       2.54444913       2.62987910       0.08586377       0.00000000
Si       2.46648519      -0.14096928      -2.73007071       0.00000000
Si      -1.20458034       1.94753987       2.89707181       0.00000000
Si      -2.68350220       0.01469830       2.62701363       0.00000000
Si      -0.25418916       2.57768594      -2.72578951       0.00000000
Si       3.33918936      -1.01187161       1.46009515       0.00000000
