10
Lattice="16.28999089631971 0.0 0.0 0.0 16.28999089631971 0.0 0.0 0.0 34.24959146834617" Properties=species:S:1:pos:R:3:initial_magmoms:R:1 pbc="T T T"
Si       1.07673642       1.55688417      -1.52064846       0.00000000
Si      -1.57459140      -1.11638628      -1.47492523       0.00000000
Si      -1.05116112       1.26276822       2.04860621       0.00000000
Si       1.89444555      -1.96424820       0.00739792       0.00000000
Si      -2.40933987      -2.85205972      -0.03240013       0.00000000
Si       2.43190152       0.18529875      -2.90731245       0.00000000
Si       2.54255949       2.82771594      -0.06640999       0.00000000
Si      -0.29514222      -2.52431795      -2.91895731       0.00000000
Si       0.01066995      -1.68893091       3.51503754       0.00000000
Si      -2.32394769      -2.06000082       2.41613878       0.00000000
