10
Lattice="16.28999089631971 0.0 0.0 0.0 16.28999089631971 0.0 0.0 0.0 34.24959146834617" Properties=species:S:1:pos:R:3:initial_magmoms:R:1 pbc="T T T"
Si      -1.74837312      -0.93866696       1.26374213       0.00000000
Si      -1.26366417       1.29515209      -1.55452133       0.00000000
Si       0.92592360       1.85522184       1.37183390       0.00000000
Si       1.44057357      -1.41128873      -1.53489630       0.00000000
Si      -0.33042636      -1.45768265       3.18490554       0.00000000
Si      -2.54311335       2.70308376      -0.11048924       0.00000000
Si      -3.37786182       0.96741032       1.33203586       0.00000000
Si      -2.55930561      -2.82014567       0.04116803       0.00000000
Si       2.81279430       2.72157291       0.10014586       0.00000000
Si      -2.62107729      -0.06776462      -2.92642373       0.00000000
