10
Lattice="16.28999089631971 0.0 0.0 0.0 16.28999089631971 0.0 0.0 0.0 34.24959146834617" Properties=species:S:1:pos:R:3:initial_magmoms:R:1 pbc="T T T"
Si       0.83474847       1.73567344      -1.44252510       0.00000000
Si      -1.70970066      -0.89420567      -1.52838887       0.00000000
Si       1.62948870      -1.90607728      -0.06829372       0.00000000
Si       0.08539218       0.79205890       2.44853891       0.00000000
Si      -2.91428100       1.05333421       1.36868294       0.00000000
Si       2.11419765       0.32774177      -2.88655718       0.00000000
Si      -0.28010655      -1.41200158       3.32793191       0.00000000
Si       2.40933987       2.85205972       0.03240013       0.00000000
Si       3.37786182      -0.96741032      -1.33203586       0.00000000
Si      -0.58326345      -2.40670156      -2.89131788       0.00000000
