10
Lattice="16.28999089631971 0.0 0.0 0.0 16.28999089631971 0.0 0.0 0.0 34.24959146834617" Properties=species:S:1:pos:R:3:initial_magmoms:R:1 pbc="T T T"
Si       0.01614339       1.52658966      -1.76529343       0.00000000
Si      -1.97535798       0.06324755       1.25579622       0.00000000
Si       1.74845457       0.19084387       1.68703307       0.00000000
Si      -0.55739493      -1.93408142      -1.43327770       0.00000000
Si       1.87005942      -2.17287653       1.71621374       0.00000000
Si      -2.68397298      -1.04854073      -1.98479918       0.00000000
Si      -1.42074864      -1.46698196       2.93793160       0.00000000
Si       2.09070747       0.85376705      -2.87224084       0.00000000
Si      -0.29566350      -3.27142526       1.99007362       0.00000000
Si      -2.31847425       1.15551975      -2.86419219       0.00000000
