10
Lattice="16.28999089631971 0.0 0.0 0.0 16.28999089631971 0.0 0.0 0.0 34.24959146834617" Properties=species:S:1:pos:R:3:initial_magmoms:R:1 pbc="T T T"
Si       2.13587964       0.14315652       0.89805904       0.00000000
Si      -0.68764977       2.24376831      -0.54073285       0.00000000
Si       0.01710450      -1.44591669      -2.05668912       0.00000000
Si      -0.82503963      -1.14319962       2.56835916       0.00000000
Si      -2.42810595      -2.30993829       1.27124280       0.00000000
Si      -1.58545683      -3.27979602      -0.88244122       0.00000000
Si      -2.39511870       2.08451727      -2.13820319       0.00000000
Si       2.17572498       1.77878655       2.66238804       0.00000000
Si      -2.06529507       3.11722182       1.22990352       0.00000000
Si       3.95508168       0.66021741      -0.54593879       0.00000000
