10
Lattice="16.28999089631971 0.0 0.0 0.0 16.28999089631971 0.0 0.0 0.0 34.24959146834617" Properties=species:S:1:pos:R:3:initial_magmoms:R:1 pbc="T T T"
Si       2.22648462      -0.35592021       0.62467865       0.00000000
Si      -1.41320637       0.22007790       1.85711664       0.00000000
Si       0.16532721      -2.10131226      -1.05838147       0.00000000
Si       0.17291835       1.62505782      -1.74220919       0.00000000
Si       2.54527992      -1.90606032      -1.10407045       0.00000000
Si      -3.39618807       0.46594287       0.61238304       0.00000000
Si      -1.11894381       3.38009355      -0.95621488       0.00000000
Si       2.40991002       2.41958628      -1.58401024       0.00000000
Si      -1.02293055       2.33411265       2.85799301       0.00000000
Si       3.59308530       1.39799151       0.15970593       0.00000000
