10
Lattice="16.28999089631971 0.0 0.0 0.0 16.28999089631971 0.0 0.0 0.0 34.24959146834617" Properties=species:S:1:pos:R:3:initial_magmoms:R:1 pbc="T T T"
Si      -1.29186216       1.75503573       0.78599431       0.00000000
Si       2.23699167       0.79452846       0.15819895       0.00000000
Si      -0.17291835      -1.62505782       1.74220919       0.00000000
Si      -0.93674016      -0.23675886      -2.36606585       0.00000000
Si       2.05356627      -1.98097803       2.36688784       0.00000000
Si      -3.46760343       0.89624322       1.10681042       0.00000000
Si      -0.52619958       2.33947206       2.92796496       0.00000000
Si      -0.00759114      -3.72637008       0.68382773       0.00000000
Si      -0.78793101       3.67681590      -0.49538637       0.00000000
Si       0.03411126       1.51607772      -3.54003975       0.00000000
