10
Lattice="16.28999089631971 0.0 0.0 0.0 16.28999089631971 0.0 0.0 0.0 34.24959146834617" Properties=species:S:1:pos:R:3:initial_magmoms:R:1 pbc="T T T"
Si      -0.98697852       1.58140062       1.40200781       0.00000000
Si       0.57888144       1.32383943      -1.86417206       0.00000000
Si      -1.72053351      -1.58514732      -0.59796395       0.00000000
Si       2.13239358      -0.80624097       0.81914794       0.00000000
Si       2.52687222       0.14312394      -2.40137720       0.00000000
Si      -2.18214324       0.15325632       2.86703490       0.00000000
Si       3.60958707       0.62529165      -0.35102426       0.00000000
Si      -1.26977292       1.48043520      -3.26751560       0.00000000
Si       0.59909733       2.97528705       2.35674996       0.00000000
Si      -1.31455413      -2.50183449      -2.74305131       0.00000000
