10
Lattice="16.28999089631971 0.0 0.0 0.0 16.28999089631971 0.0 0.0 0.0 34.24959146834617" Properties=species:S:1:pos:R:3:initial_magmoms:R:1 pbc="T T T"
Si       0.95262291      -0.87980661      -1.98983388       0.00000000
Si       1.42825833      -1.00181871       1.82752497       0.00000000
Si       0.26824743       2.46527973      -0.57159175       0.00000000
Si      -2.40011973      -1.47639528       0.37883494       0.00000000
Si      -3.19160522       1.25564949      -0.23618531       0.00000000
Si      -1.10099223      -0.87456123      -3.19360494       0.00000000
Si      -2.02080708       2.42841546       1.86095259       0.00000000
Si      -2.46076740       1.03340502      -2.66598969       0.00000000
Si      -0.69050052       2.58479946      -2.81374251       0.00000000
Si      -2.57320098      -2.16104769      -1.99777979       0.00000000
