10
Lattice="16.28999089631971 0.0 0.0 0.0 16.28999089631971 0.0 0.0 0.0 34.24959146834617" Properties=species:S:1:pos:R:3:initial_magmoms:R:1 pbc="T T T"
Si      -0.11077200       1.97123824      -1.21051824       0.00000000
Si      -2.27947762      -0.30197329       0.40219318       0.00000000
Si       1.19278638       0.60314702       1.92013592       0.00000000
Si       0.95915520      -1.90991032      -0.98056635       0.00000000
Si       2.99411829      -1.08205252      -1.63206244       0.00000000
Si      -2.28848436      -0.69220024       2.67047639       0.00000000
Si      -0.11350872      -0.43920025       3.56195950       0.00000000
Si      -0.46320615       3.65567311       0.41000209       0.00000000
Si      -2.83352237      -2.41866331      -0.42404443       0.00000000
Si       1.14999255       2.98600750       1.99736879       0.00000000
