10
Lattice="16.28999089631971 0.0 0.0 0.0 16.28999089631971 0.0 0.0 0.0 34.24959146834617" Properties=species:S:1:pos:R:3:initial_magmoms:R:1 pbc="T T T"
Si       0.37892169       2.03318748       1.01806968       0.00000000
Si      -0.97085142      -1.75283658       1.17397390       0.00000000
Si       2.10220821      -0.62990172      -0.80513985       0.00000000
Si      -1.84995756       0.67072446      -2.12566783       0.00000000
Si      -1.03902507       2.55220317      -0.90309373       0.00000000
Si       0.90153747      -1.97420139      -2.33582344       0.00000000
Si      -0.35044677      -3.27736881      -0.80712632       0.00000000
Si      -3.42772551      -0.74697795      -0.93186341       0.00000000
Si       3.30551793      -1.00929582       1.41057021       0.00000000
Si      -0.55047168      -0.64368306      -3.71118506       0.00000000
