10
Lattice="16.28999089631971 0.0 0.0 0.0 16.28999089631971 0.0 0.0 0.0 34.24959146834617" Properties=species:S:1:pos:R:3:initial_magmoms:R:1 pbc="T T T"
Si       1.74837312       0.93866696      -1.26374213       0.00000000
Si      -0.81093249      -1.88147871      -1.22257410       0.00000000
Si       1.41794676      -0.51901569       1.92116341       0.00000000
Si      -1.62948870       1.90607728       0.06829372       0.00000000
Si       1.03902507      -2.55220317       0.90309373       0.00000000
Si      -2.21275215      -0.50062428      -2.82302415       0.00000000
Si       0.48470895       2.23381905      -2.81826346       0.00000000
Si      -3.33918936       1.01187161      -1.46009515       0.00000000
Si       2.67429672       2.79388880       0.10809177       0.00000000
Si      -1.90959525       0.49407570       3.39622564       0.00000000
