10
Lattice="16.28999089631971 0.0 0.0 0.0 16.28999089631971 0.0 0.0 0.0 34.24959146834617" Properties=species:S:1:pos:R:3:initial_magmoms:R:1 pbc="T T T"
Si       1.29186216      -1.75503573      -0.78599431       0.00000000
Si       0.76566258       0.58443633       2.14197065       0.00000000
Si      -2.17574127      -0.85879251       0.32081610       0.00000000
Si       0.50393115       1.92178017      -1.28138068       0.00000000
Si      -3.13391907       0.89981073       1.59555236       0.00000000
Si       1.11894381      -3.38009355       0.95621488       0.00000000
Si       3.52885383      -0.96050727      -0.62779536       0.00000000
Si      -1.62264690       2.80732086      -1.83290216       0.00000000
Si       0.35512200      -1.99179459      -3.15206016       0.00000000
Si       2.93138550       1.68298506       1.86811076       0.00000000
