10
Lattice="16.28999089631971 0.0 0.0 0.0 16.28999089631971 0.0 0.0 0.0 34.24959146834617" Properties=species:S:1:pos:R:3:initial_magmoms:R:1 pbc="T T T"
Si      -2.03496309      -0.82785780       0.65149609       0.00000000
Si       1.12508514      -1.80444330      -0.94785797       0.00000000
Si      -0.55460934       1.53022951      -1.68213538       0.00000000
Si       1.39877343       0.39615651       1.83831360       0.00000000
Si      -2.77449651      -1.48906890      -1.49427626       0.00000000
Si       0.45543582      -3.43486053       0.72437926       0.00000000
Si       2.50382187       2.30259217       1.04735309       0.00000000
Si      -2.99411829       1.08205252       1.63206244       0.00000000
Si       1.42074864       1.46698196      -2.93793160       0.00000000
Si      -1.38350970      -2.54093049       2.10600856       0.00000000
