10
Lattice="16.28999089631971 0.0 0.0 0.0 16.28999089631971 0.0 0.0 0.0 34.24959146834617" Properties=species:S:1:pos:R:3:initial_magmoms:R:1 pbc="T T T"
Si       1.10504844       1.90643566      -0.79096051       0.00000000
Si      -1.39877343      -0.39615651      -1.83831360       0.00000000
Si      -1.15331571       0.19305279       2.05747686       0.00000000
Si       1.60490709      -1.68433713       0.46387673       0.00000000
Si      -0.27368829      -2.20059981      -2.78617157       0.00000000
Si       2.68340283       2.13010388       1.08451392       0.00000000
Si       2.14597944      -1.24439310       2.73479716       0.00000000
Si       1.89203463      -1.10205108      -3.06003146       0.00000000
Si      -1.98306315      -2.10369060       2.41295357       0.00000000
Si       1.77042978       1.26166932      -3.08921213       0.00000000
