10
Lattice="16.28999089631971 0.0 0.0 0.0 16.28999089631971 0.0 0.0 0.0 34.24959146834617" Properties=species:S:1:pos:R:3:initial_magmoms:R:1 pbc="T T T"
Si      -1.58607585      -1.39388643      -0.95474215       0.00000000
Si       1.51031106      -1.35920502       1.12205149       0.00000000
Si      -1.02868092       0.94182264       1.93376726       0.00000000
Si       1.22044680       1.09177209      -1.77553406       0.00000000
Si      -2.90859579       0.23247459      -2.09737765       0.00000000
Si       3.54667509      -0.43588782       0.51073019       0.00000000
Si       3.23319033      -0.12958695      -1.82187379       0.00000000
Si      -1.10832273       3.33741605       1.53910900       0.00000000
Si      -0.59909733      -2.97528705      -2.35674996       0.00000000
Si       1.31007438       3.42255736      -1.31388356       0.00000000
