10
Lattice="16.28999089631971 0.0 0.0 0.0 16.28999089631971 0.0 0.0 0.0 34.24959146834617" Properties=species:S:1:pos:R:3:initial_magmoms:R:1 pbc="T T T"
Si      -0.81663399      -1.94758353       1.29587653       0.00000000
Si       2.09047941       0.72780462       1.23511087       0.00000000
Si      -0.61136370       0.28070928      -2.44518245       0.00000000
Si      -1.82014686       1.82164554       0.30251829       0.00000000
Si       0.60629751       2.08251360       2.83939688       0.00000000
Si      -2.14666362      -0.65127420       2.84340408       0.00000000
Si      -3.56252526       0.67888575       1.44214291       0.00000000
Si      -3.04829883      -0.13805775      -2.45042264       0.00000000
Si      -0.71102592       3.56145568       1.49550038       0.00000000
Si      -0.69100551       2.67630269      -2.83984071       0.00000000
