10
Lattice="16.28999089631971 0.0 0.0 0.0 16.28999089631971 0.0 0.0 0.0 34.24959146834617" Properties=species:S:1:pos:R:3:initial_magmoms:R:1 pbc="T T T"
Si       1.47709575      -1.30325653       1.28840185       0.00000000
Si      -1.35122292      -1.36755339      -1.38214304       0.00000000
Si       1.36464588       1.35176701      -1.38556800       0.00000000
Si      -1.34086248       1.41741571       1.63750813       0.00000000
Si      -2.69027721       2.70061159      -0.00551419       0.00000000
Si       2.70282051       2.72156053      -0.00808291       0.00000000
Si      -2.71308321      -2.71544593       0.00246597       0.00000000
Si       0.01008351       2.70378814      -2.74633928       0.00000000
Si      -2.70477531      -0.01046795      -2.74637353       0.00000000
Si       2.72670165      -0.01126942      -2.74517479       0.00000000
