10
Lattice="16.28999089631971 0.0 0.0 0.0 16.28999089631971 0.0 0.0 0.0 34.24959146834617" Properties=species:S:1:pos:R:3:initial_magmoms:R:1 pbc="T T T"
Si      -1.32934545       1.28917431       1.41027224       0.00000000
Si       1.12827798       1.66472397      -1.19076854       0.00000000
Si       1.40629941      -1.41675759       1.39260287       0.00000000
Si      -1.43467659      -1.16553321      -1.76977126       0.00000000
Si       0.62551971      -0.97852401      -2.81089093       0.00000000
Si      -2.49452028      -2.62847295      -0.11256820       0.00000000
Si      -0.58054302       3.35109735      -1.39895073       0.00000000
Si      -2.61516402       2.60038899      -0.16832999       0.00000000
Si       0.05058045       2.64704355       2.76783776       0.00000000
Si      -2.66390370      -0.06960717       2.77479043       0.00000000
