10
Lattice="16.28999089631971 0.0 0.0 0.0 16.28999089631971 0.0 0.0 0.0 34.24959146834617" Properties=species:S:1:pos:R:3:initial_magmoms:R:1 pbc="T T T"
Si       1.29546225      -1.34053668      -1.39690462       0.00000000
Si      -1.30114746      -1.39862682       1.45872517       0.00000000
Si      -1.41108867       1.38567627      -1.39649362       0.00000000
Si       1.76643873       0.99225648       1.41526241       0.00000000
Si       2.53928520      -2.65303827       0.23166437       0.00000000
Si      -2.60760546      -0.00332316       2.76620405       0.00000000
Si       2.62975986       2.75038731       0.07391066       0.00000000
Si       2.64663630       0.03168405      -2.76164885       0.00000000
Si      -2.76697053      -2.66945859       0.00448670       0.00000000
Si      -0.06773382      -2.68320735      -2.76551906       0.00000000
