10
Lattice="16.28999089631971 0.0 0.0 0.0 16.28999089631971 0.0 0.0 0.0 34.24959146834617" Properties=species:S:1:pos:R:3:initial_magmoms:R:1 pbc="T T T"
Si       1.12602996      -1.96779942       0.56909153       0.00000000
Si      -0.31879530       1.55014011       1.72874910       0.00000000
Si      -2.37995271      -0.19525194       0.04568898       0.00000000
Si       0.50513661       0.44331606      -2.31465718       0.00000000
Si       0.15605820      -3.00182346      -1.29658751       0.00000000
Si      -2.54527992       1.90606032       1.10407045       0.00000000
Si       1.04780538       3.30405183       1.26377638       0.00000000
Si      -2.81184948      -2.26918071       0.97118196       0.00000000
Si       0.06854832       0.69752151       3.85421143       0.00000000
Si       1.40429574      -1.88139726      -3.13983305       0.00000000
