10
Lattice="16.28999089631971 0.0 0.0 0.0 16.28999089631971 0.0 0.0 0.0 34.24959146834617" Properties=species:S:1:pos:R:3:initial_magmoms:R:1 pbc="T T T"
Si      -2.04493257      -0.56290095       1.07410204       0.00000000
Si       1.43669655       1.67270607       0.90980666       0.00000000
Si      -0.74603313       0.90859104      -2.10600856       0.00000000
Si       1.31105178      -2.00415870       0.35763443       0.00000000
Si       1.70725716      -1.72475262       2.72938572       0.00000000
Si       2.56461615       0.46670850       2.59981944       0.00000000
Si      -3.27898152      -1.51532838      -0.72191329       0.00000000
Si       0.83668698       2.54633877      -2.67099013       0.00000000
Si      -0.86657913      -1.00794375      -3.60131231       0.00000000
Si       3.44601918      -1.67371605      -0.55295996       0.00000000
