10
Lattice="16.28999089631971 0.0 0.0 0.0 16.28999089631971 0.0 0.0 0.0 34.24959146834617" Properties=species:S:1:pos:R:3:initial_magmoms:R:1 pbc="T T T"
Si       0.85735899       2.19146112      -0.12956628       0.00000000
Si      -1.91490579      -0.29639655       1.37573836       0.00000000
Si       1.62437364      -1.44132291       0.97381918       0.00000000
Si      -0.39620538      -0.27940608      -2.37175129       0.00000000
Si       0.05405022      -3.26601794       1.03974968       0.00000000
Si       2.46870063       1.78639398      -1.83488864       0.00000000
Si      -1.70725716       1.72475262      -2.72938572       0.00000000
Si       1.73876202       0.05103657      -3.28234568       0.00000000
Si      -1.85631066       1.64911815       2.89851030       0.00000000
Si      -3.80752686      -0.60628122      -0.03596209       0.00000000
