10
Lattice="16.28999089631971 0.0 0.0 0.0 16.28999089631971 0.0 0.0 0.0 34.24959146834617" Properties=species:S:1:pos:R:3:initial_magmoms:R:1 pbc="T T T"
Si       2.06019630       0.18700920      -1.04111966       0.00000000
Si      -1.05984369      -1.46293974       1.65720307       0.00000000
Si      -1.96529076       0.20085570      -1.49639974       0.00000000
Si       1.43467659       1.16553321       1.76977126       0.00000000
Si       1.89970722       1.85388345      -2.67420960       0.00000000
Si      -3.78449280      -0.31620519      -0.05240190       0.00000000
Si      -2.70275535      -2.65251699       0.37321801       0.00000000
Si       2.56295457       2.83025718       0.57900272       0.00000000
Si       2.97390240      -1.95509322      -1.71501500       0.00000000
Si       0.10533114       2.45470752       3.18004350       0.00000000
