10
Lattice="16.28999089631971 0.0 0.0 0.0 16.28999089631971 0.0 0.0 0.0 34.24959146834617" Properties=species:S:1:pos:R:3:initial_magmoms:R:1 pbc="T T T"
Si       1.32934545      -1.28917431      -1.41027224       0.00000000
Si      -1.33455825      -1.35878148       1.36451819       0.00000000
Si       1.37992590       1.35786924       1.35756552       0.00000000
Si      -1.28581857       1.31121468      -1.57860223       0.00000000
Si       0.74880243       2.06192304      -2.80922297       0.00000000
Si       2.45762343       0.37554966      -2.60104078       0.00000000
Si      -2.67286320      -2.69886204      -0.01944693       0.00000000
Si      -2.67801084       2.72528442      -0.04003094       0.00000000
Si      -2.68889256      -0.00156384       2.72011777       0.00000000
Si       0.02414178      -2.71350675       2.72011777       0.00000000
