10
Lattice="16.28999089631971 0.0 0.0 0.0 16.28999089631971 0.0 0.0 0.0 34.24959146834617" Properties=species:S:1:pos:R:3:initial_magmoms:R:1 pbc="T T T"
Si       1.35433431      -1.35721764      -1.35559959       0.00000000
Si       1.35553977       1.35747828       1.35696957       0.00000000
Si      -1.35912357      -1.35718506       1.35686682       0.00000000
Si      -1.35865116       1.35731538      -1.36025753       0.00000000
Si       2.68889256       0.00156384      -2.72011777       0.00000000
Si       2.71303434      -2.71194291       0.00000000       0.00000000
Si       2.71316466       0.00016290       2.71458989       0.00000000
Si      -2.71661814      -2.71252935       0.00047949       0.00000000
Si       2.71309950       2.71643895       0.00020550       0.00000000
Si      -0.00144981      -2.71503801       2.71452139       0.00000000
