10
Lattice="16.28999089631971 0.0 0.0 0.0 16.28999089631971 0.0 0.0 0.0 34.24959146834617" Properties=species:S:1:pos:R:3:initial_magmoms:R:1 pbc="T T T"
Si      -1.35637056       1.35672894      -1.36121652       0.00000000
Si       1.36016613      -1.35883035      -1.36203851       0.00000000
Si       1.37352393       1.35016407       1.36405924       0.00000000
Si      -1.37544615      -1.34829072       1.37971131       0.00000000
Si      -2.71305063      -2.71568961      -0.00003425       0.00000000
Si       2.71746522       2.71238274      -0.00510319       0.00000000
Si      -2.71718829       2.71293660      -0.00171248       0.00000000
Si       0.00066789       2.71391400      -2.71911084       0.00000000
Si      -2.71412577      -0.00105885      -2.71911084       0.00000000
Si       2.71603170      -0.00140094      -2.71907659       0.00000000
