10
Lattice="16.28999089631971 0.0 0.0 0.0 16.28999089631971 0.0 0.0 0.0 34.24959146834617" Properties=species:S:1:pos:R:3:initial_magmoms:R:1 pbc="T T T"
Si      -1.36660068      -1.75391172       0.46497271       0.00000000
Si      -1.18317528       1.02159477      -1.74371618       0.00000000
Si       0.33617673       0.97207317       2.10518657       0.00000000
Si       2.07681210      -0.96396075      -0.56148812       0.00000000
Si       2.91336876       1.21249728      -0.04322301       0.00000000
Si       1.62919548       2.89709505      -1.19469492       0.00000000
Si      -0.72016461       3.29323527      -1.34258474       0.00000000
Si      -0.81937071      -0.40119012       3.56442548       0.00000000
Si      -1.04780538      -3.30405183      -1.26377638       0.00000000
Si       2.62573623       1.19312847       2.30414255       0.00000000
