10
Lattice="16.28999089631971 0.0 0.0 0.0 16.28999089631971 0.0 0.0 0.0 34.24959146834617" Properties=species:S:1:pos:R:3:initial_magmoms:R:1 pbc="T T T"
Si      -0.38734362       0.85261860      -2.12546234       0.00000000
Si       2.09670219      -1.03467564       0.07038295       0.00000000
Si      -1.58272011      -1.63774773       0.56498158       0.00000000
Si       0.15988635       2.20534020       0.97399043       0.00000000
Si       2.74260069      -0.53230833       2.31030748       0.00000000
Si       0.60000957      -0.87363270       3.58079679       0.00000000
Si      -3.68154000      -0.43961823       0.63231631       0.00000000
Si      -0.83668698      -2.54633877       2.67099013       0.00000000
Si       0.97925706       2.60653032      -2.59043505       0.00000000
Si       3.53952378       0.03227049      -1.46783556       0.00000000
