10
Lattice="16.28999089631971 0.0 0.0 0.0 16.28999089631971 0.0 0.0 0.0 34.24959146834617" Properties=species:S:1:pos:R:3:initial_magmoms:R:1 pbc="T T T"
Si       2.14288434      -0.95237856      -0.15261626       0.00000000
Si      -1.47719349      -1.43153262       1.17017220       0.00000000
Si      -1.08271485      -0.48216771      -2.05035294       0.00000000
Si       0.22270059       2.22040845       0.88590043       0.00000000
Si      -3.03070563       0.69854778      -1.51314780       0.00000000
Si       0.07283259       0.89109558      -3.50959185       0.00000000
Si       1.49999949      -3.21981624      -0.71403588       0.00000000
Si      -0.64259163      -3.56114061       0.55645342       0.00000000
Si      -3.60958707      -0.62529165       0.35102426       0.00000000
Si       0.53618535       1.91410758       3.21850441       0.00000000
