10
Lattice="16.28999089631971 0.0 0.0 0.0 16.28999089631971 0.0 0.0 0.0 34.24959146834617" Properties=species:S:1:pos:R:3:initial_magmoms:R:1 pbc="T T T"
Si       2.03636403       0.92331720      -0.61132130       0.00000000
Si      -1.51031106       1.35920502      -1.12205149       0.00000000
Si       0.22090869      -2.37873096      -0.30985623       0.00000000
Si       2.32533234      -2.37123756       0.79195375       0.00000000
Si      -2.53899198       2.30102766       0.81171577       0.00000000
Si       0.02298519      -2.42232300      -2.65965351       0.00000000
Si       1.72287927       1.22961807      -2.94392528       0.00000000
Si      -3.09638691      -0.03468141      -2.07679364       0.00000000
Si       3.73627440      -0.67634451      -0.18659188       0.00000000
Si      -0.28986426       2.45097711      -2.89758556       0.00000000
