10
Lattice="16.28999089631971 0.0 0.0 0.0 16.28999089631971 0.0 0.0 0.0 34.24959146834617" Properties=species:S:1:pos:R:3:initial_magmoms:R:1 pbc="T T T"
Si       1.36186029       1.34789254      -1.38460901       0.00000000
Si      -1.35062019      -1.36614456      -1.38556800       0.00000000
Si       1.37016819      -1.37622807       1.38765722       0.00000000
Si      -1.44057357       1.41128873       1.53489630       0.00000000
Si      -2.70423774       2.70644082      -0.01962503       0.00000000
Si      -2.70039330      -2.72326446      -0.00945289       0.00000000
Si       2.71308321       2.71544593      -0.00246597       0.00000000
Si       0.00830790       2.70497798      -2.74883950       0.00000000
Si      -2.70578529      -0.00922014      -2.74853125       0.00000000
Si       2.71404432      -2.74356180      -0.01914553       0.00000000
