10
Lattice="16.28999089631971 0.0 0.0 0.0 16.28999089631971 0.0 0.0 0.0 34.24959146834617" Properties=species:S:1:pos:R:3:initial_magmoms:R:1 pbc="T T T"
Si      -1.35627934       1.35674523      -1.35714082       0.00000000
Si      -1.35650088      -1.35715248       1.35683257       0.00000000
Si       1.35821133       1.35729909       1.35758607       0.00000000
Si       1.35873261      -1.35834165      -1.35792856       0.00000000
Si      -2.71403675       2.71438641       0.00023975       0.00000000
Si       0.00159642      -2.71495656      -2.71363090       0.00000000
Si      -2.71299385       0.00149868       2.71623387       0.00000000
Si      -2.71392635      -2.71555929      -0.00010275       0.00000000
Si       0.00211770       2.71510317      -2.71445289       0.00000000
Si       0.00210141       2.71391400       2.71582287       0.00000000
