10
Lattice="16.28999089631971 0.0 0.0 0.0 16.28999089631971 0.0 0.0 0.0 34.24959146834617" Properties=species:S:1:pos:R:3:initial_magmoms:R:1 pbc="T T T"
Si       2.25784287       0.53520795      -0.40712512       0.00000000
Si      -0.64669671       2.26523853       0.11336621       0.00000000
Si      -0.90456741      -0.56583315      -2.27910609       0.00000000
Si       0.27722322       1.17773442       2.81843471       0.00000000
Si      -0.92416428      -2.28195207       1.83358715       0.00000000
Si       0.88275510      -1.09582830       2.87559731       0.00000000
Si      -2.99426490      -0.74370366      -1.19589365       0.00000000
Si      -3.04031673      -1.26006408       1.22171786       0.00000000
Si      -0.16980696      -3.67683938       0.03332487       0.00000000
Si      -0.23128542      -2.81347522      -2.40675439       0.00000000
