10
Lattice="16.28999089631971 0.0 0.0 0.0 16.28999089631971 0.0 0.0 0.0 34.24959146834617" Properties=species:S:1:pos:R:3:initial_magmoms:R:1 pbc="T T T"
Si       1.35837304      -1.35451350       1.35857930       0.00000000
Si      -1.35821133      -1.35637056      -1.35727782       0.00000000
Si       1.35733014       1.35837423      -1.35741482       0.00000000
Si      -1.35773892       1.35601218       1.36056578       0.00000000
Si       2.71486601      -2.71316466      -0.00082199       0.00000000
Si      -0.00011403      -2.71438641      -2.71469264       0.00000000
Si      -2.71581993      -2.71353933      -0.00078774       0.00000000
Si       2.71508755       0.00073305      -2.71479538       0.00000000
Si       2.71418997       2.71590138       0.00030825       0.00000000
Si      -2.71562445       0.00087966      -2.71458989       0.00000000
