10
Lattice="16.28999089631971 0.0 0.0 0.0 16.28999089631971 0.0 0.0 0.0 34.24959146834617" Properties=species:S:1:pos:R:3:initial_magmoms:R:1 pbc="T T T"
Si       1.34102538       1.35229806       1.37279974       0.00000000
Si      -1.25516079       1.28705661      -1.53613956       0.00000000
Si      -1.37446875      -1.36187658       1.36523058       0.00000000
Si       1.43143488      -1.23799113      -1.44948462       0.00000000
Si      -2.00559222      -0.65782278      -2.80155791       0.00000000
Si      -0.29677122      -2.34419616      -2.59337572       0.00000000
Si       2.69890323       2.69428455       0.01173392       0.00000000
Si       2.69759142      -2.72109789      -0.01804954       0.00000000
Si      -2.73116511       2.68969077      -0.02815660       0.00000000
Si       2.69938746      -0.00467523       2.72815958       0.00000000
