10
Lattice="16.28999089631971 0.0 0.0 0.0 16.28999089631971 0.0 0.0 0.0 34.24959146834617" Properties=species:S:1:pos:R:3:initial_magmoms:R:1 pbc="T T T"
Si      -1.35449721       1.35560493       1.35580509       0.00000000
Si      -1.35593073      -1.35817875      -1.35816831       0.00000000
Si       1.35917244       1.35676152      -1.35844231       0.00000000
Si       1.35928647      -1.36060596       1.35981229       0.00000000
Si      -2.69843850      -0.00661374       2.72496752       0.00000000
Si      -0.00791694       2.69703756       2.72811848       0.00000000
Si      -2.71308321       2.71272483      -0.00034250       0.00000000
Si      -2.71179630      -2.71560816      -0.00113024       0.00000000
Si      -2.71355562      -0.00086337      -2.71578862       0.00000000
Si       0.00188964       2.71474479      -2.71554888       0.00000000
