10
Lattice="16.28999089631971 0.0 0.0 0.0 16.28999089631971 0.0 0.0 0.0 34.24959146834617" Properties=species:S:1:pos:R:3:initial_magmoms:R:1 pbc="T T T"
Si      -1.34543997       1.38142458      -1.29734100       0.00000000
Si       1.37712306      -1.38119652      -1.29244331       0.00000000
Si       1.71524645       0.83341269       1.35628458       0.00000000
Si      -1.94626404      -0.93972123       1.97346256       0.00000000
Si       0.09076546      -1.90791738       2.69743083       0.00000000
Si       0.27087731       0.71509842       3.23538947       0.00000000
Si       2.64046958       2.61913878       0.11463345       0.00000000
Si      -2.69402391      -0.00633681      -2.66092075       0.00000000
Si       0.02055798       2.71267596      -2.66468820       0.00000000
Si       0.02208805      -2.71686249      -2.66290722       0.00000000
