10
Lattice="16.28999089631971 0.0 0.0 0.0 16.28999089631971 0.0 0.0 0.0 34.24959146834617" Properties=species:S:1:pos:R:3:initial_magmoms:R:1 pbc="T T T"
Si       1.37924172       1.35423657       1.34039276       0.00000000
Si      -1.35767376       1.35715248      -1.36107953       0.00000000
Si       1.35780408      -1.35786924      -1.36121652       0.00000000
Si      -1.36730115      -1.37492487       1.36768970       0.00000000
Si       2.71764441       2.70983688      -0.00414420       0.00000000
Si       2.71448415      -2.71355562      -0.00438395       0.00000000
Si      -2.71388142      -2.71635750      -0.00462370       0.00000000
Si       0.00003258       2.71474682      -2.71866559       0.00000000
Si       2.71503291      -0.00001629      -2.71876834       0.00000000
Si      -0.00021177      -2.71520091      -2.71887109       0.00000000
