10
Lattice="16.28999089631971 0.0 0.0 0.0 16.28999089631971 0.0 0.0 0.0 34.24959146834617" Properties=species:S:1:pos:R:3:initial_magmoms:R:1 pbc="T T T"
Si      -1.34658027      -1.34143263      -1.37231340       0.00000000
Si       1.36730115       1.37492487      -1.36768970       0.00000000
Si      -1.34387613       1.36733373       1.40680276       0.00000000
Si       1.35032697      -1.33894026       1.46725332       0.00000000
Si       0.47058552       2.42111754       2.45737531       0.00000000
Si       2.20633389       0.71504955       2.65732454       0.00000000
Si       2.71578735      -2.66988213      -0.00472645       0.00000000
Si      -2.69052156      -2.70365130      -0.00315096       0.00000000
Si       0.00791694      -2.69703756      -2.72811848       0.00000000
Si      -2.70516627       0.01568727      -2.72846098       0.00000000
