10
Lattice="16.28999089631971 0.0 0.0 0.0 16.28999089631971 0.0 0.0 0.0 34.24959146834617" Properties=species:S:1:pos:R:3:initial_magmoms:R:1 pbc="T T T"
Si       1.00554912       1.73463366      -1.15229390       0.00000000
Si      -0.63902412       0.66754791       2.13881968       0.00000000
Si      -1.81446165      -1.05378381      -1.05057256       0.00000000
Si       1.73574837      -1.70606799       0.19994923       0.00000000
Si       2.27595735       0.30804390      -2.48467225       0.00000000
Si      -0.47058552      -2.42111754      -2.45737531       0.00000000
Si      -0.16560414      -1.34894232       3.20798978       0.00000000
Si       2.10510783       2.91422466       0.55549443       0.00000000
Si       2.16026577      -1.78857684       2.51614764       0.00000000
Si       0.83592135       2.28658887       2.95259043       0.00000000
