10
Lattice="16.28999089631971 0.0 0.0 0.0 16.28999089631971 0.0 0.0 0.0 34.24959146834617" Properties=species:S:1:pos:R:3:initial_magmoms:R:1 pbc="T T T"
Si      -0.47341998       2.01649023      -1.06917009       0.00000000
Si      -1.86342939      -1.41749064      -0.53391718       0.00000000
Si      -0.15369615       0.74575620       2.30277257       0.00000000
Si       2.32586991      -0.43963452      -0.69184213       0.00000000
Si       0.16560414       1.34894232      -3.20798978       0.00000000
Si      -2.50305624       1.14189642       2.15488275       0.00000000
Si      -2.65720851       2.29177494      -0.03216038       0.00000000
Si       1.90135251      -0.35712567      -3.00804055       0.00000000
Si      -2.96606691      -1.12974408       1.75375131       0.00000000
Si      -0.75313557      -3.47946255      -0.78852879       0.00000000
