10
Lattice="16.28999089631971 0.0 0.0 0.0 16.28999089631971 0.0 0.0 0.0 34.24959146834617" Properties=species:S:1:pos:R:3:initial_magmoms:R:1 pbc="T T T"
Si       0.55404475       2.11669002       0.82623761       0.00000000
Si      -2.36571525       0.21776472       0.06319053       0.00000000
Si       0.41792877      -1.85776047       1.43440794       0.00000000
Si       1.04317155      -1.04725152      -1.91270375       0.00000000
Si      -2.76516234      -1.84124241      -0.87778327       0.00000000
Si      -1.48905261      -3.10946778       0.61954121       0.00000000
Si       0.54503801       1.72646307       3.09452082       0.00000000
Si       2.83352237       2.41866331       0.42404443       0.00000000
Si       3.79267757       0.50875299      -0.55652192       0.00000000
Si       2.63098880      -2.75890698       0.94159029       0.00000000
