10
Lattice="16.28999089631971 0.0 0.0 0.0 16.28999089631971 0.0 0.0 0.0 34.24959146834617" Properties=species:S:1:pos:R:3:initial_magmoms:R:1 pbc="T T T"
Si      -0.73034586       1.93293882      -1.29480653       0.00000000
Si      -1.34332227       0.61669053       2.07350568       0.00000000
Si       2.54464854      -0.38939616      -0.00452095       0.00000000
Si      -1.57328820      -1.73837106      -1.33299484       0.00000000
Si       1.59718858      -2.25787545       1.93934995       0.00000000
Si      -3.27319857      -0.13870935      -1.75772427       0.00000000
Si      -3.06545220       2.11348089      -0.62450740       0.00000000
Si      -0.03937293       1.36879983      -3.60148355       0.00000000
Si       1.20493872      -0.65511864      -3.69173128       0.00000000
Si       0.14423166       1.64444292       3.60807801       0.00000000
