10
Lattice="16.28999089631971 0.0 0.0 0.0 16.28999089631971 0.0 0.0 0.0 34.24959146834617" Properties=species:S:1:pos:R:3:initial_magmoms:R:1 pbc="T T T"
Si       2.24095014      -0.15203457      -0.52943048       0.00000000
Si      -0.27577341       1.27806453       1.96216019       0.00000000
Si      -0.74751552       1.02053592      -1.99086137       0.00000000
Si      -0.37584288      -2.31420627       0.52775225       0.00000000
Si      -2.63678804      -0.33006798      -2.28359279       0.00000000
Si       2.15588376      -0.28805607      -2.94543226       0.00000000
Si       3.05800767      -1.80112014       1.05129180       0.00000000
Si      -3.60511451      -0.90632673      -0.12168887       0.00000000
Si      -2.53959227       1.42410438       2.48354201       0.00000000
Si      -2.59127378      -2.61951345       1.14845794       0.00000000
