10
Lattice="16.28999089631971 0.0 0.0 0.0 16.28999089631971 0.0 0.0 0.0 34.24959146834617" Properties=species:S:1:pos:R:3:initial_magmoms:R:1 pbc="T T T"
Si      -0.11334582      -2.30022945       0.43942250       0.00000000
Si      -0.87469155       0.86126859       2.00459546       0.00000000
Si      -0.98820027       1.07645949      -1.84208106       0.00000000
Si       2.24826435       0.80363457      -0.26505774       0.00000000
Si       0.52492896      -3.18547692      -1.68912230       0.00000000
Si       0.07413579       3.23830539      -1.80474898       0.00000000
Si      -3.25201913       1.22249934      -1.32069923       0.00000000
Si       1.53753165      -2.66916537       2.08610953       0.00000000
Si      -1.61370369       2.99317347       1.53243033       0.00000000
Si       2.67660990       1.99544355       1.76323845       0.00000000
