10
Lattice="16.28999089631971 0.0 0.0 0.0 16.28999089631971 0.0 0.0 0.0 34.24959146834617" Properties=species:S:1:pos:R:3:initial_magmoms:R:1 pbc="T T T"
Si       1.40120064      -1.34636850      -1.32872734       0.00000000
Si       1.36746405       1.34100909       1.37077217       0.00000000
Si      -1.34790139      -1.37710773       1.36580597       0.00000000
Si      -1.39692777       1.36265850      -1.45458096       0.00000000
Si      -2.70697303       2.68273494       0.01193256       0.00000000
Si       2.71296918       2.68416846      -0.01299430       0.00000000
Si       0.00933417       2.69599500       2.72736499       0.00000000
Si       0.03872133      -2.52814284      -2.89273722       0.00000000
Si      -2.70648881      -0.01622484       2.72835823       0.00000000
Si      -2.70828485      -2.73264750      -0.01785090       0.00000000
