10
Lattice="16.28999089631971 0.0 0.0 0.0 16.28999089631971 0.0 0.0 0.0 34.24959146834617" Properties=species:S:1:pos:R:3:initial_magmoms:R:1 pbc="T T T"
Si      -1.35693677       1.35738543       1.35714082       0.00000000
Si      -1.35876949      -1.35713076      -1.35659283       0.00000000
Si       1.35858600       1.35798816      -1.35638733       0.00000000
Si       1.35809730      -1.35805368       1.35724357       0.00000000
Si      -2.71423070       0.00129831      -2.71342540       0.00000000
Si      -0.00148565      -2.71430726       2.71376790       0.00000000
Si      -2.71357910       0.00036001       2.71527488       0.00000000
Si      -2.71449134       2.71457049       0.00020550       0.00000000
Si       0.00037956       2.71279488      -2.71643937       0.00000000
Si       0.00048870       2.71579224       2.71407614       0.00000000
