10
Lattice="16.28999089631971 0.0 0.0 0.0 16.28999089631971 0.0 0.0 0.0 34.24959146834617" Properties=species:S:1:pos:R:3:initial_magmoms:R:1 pbc="T T T"
Si      -1.35045566       1.29388442      -1.40713498       0.00000000
Si       1.34226342       1.35938488       1.35718192       0.00000000
Si      -1.37324537      -1.35423657       1.35629143       0.00000000
Si       1.27257480      -1.39543398      -1.42421526       0.00000000
Si      -2.29085781      -0.46643157      -2.64307054       0.00000000
Si      -0.50225328      -2.24924175      -2.88423647       0.00000000
Si       2.68843644      -2.72559393      -0.02295409       0.00000000
Si       2.68076385       2.73444659      -0.01997437       0.00000000
Si       2.69835705       0.00303734       2.71863819       0.00000000
Si      -0.01519857      -2.71376739       2.71740521       0.00000000
