10
Lattice="10.86 0.0 0.0 0.0 10.86 0.0 0.0 0.0 10.86" Properties=species:S:1:pos:R:3:initial_magmoms:R:1 pbc="T T T"
Si       1.09719666      -1.28762676      -1.57880508       0.00000000
Si       1.28839782       1.34312136       1.41372222       0.00000000
Si      -1.61780334      -1.28762676       1.13619492       0.00000000
Si      -1.61780334       1.42737324      -1.57880508       0.00000000
Si       2.36771892      -2.55640056      -0.23589006       0.00000000
Si      -0.22901568      -2.52759984       2.76747552       0.00000000
Si       2.45469666       0.06987324      -2.93630508       0.00000000
Si       2.49368406       2.89541718      -0.36208326       0.00000000
Si      -2.97530334       0.06987324       2.49369492       0.00000000
Si      -0.14429682       2.86181634       2.62156056       0.00000000
