10
Lattice="10.86 0.0 0.0 0.0 10.86 0.0 0.0 0.0 10.86" Properties=species:S:1:pos:R:3:initial_magmoms:R:1 pbc="T T T"
Si       1.35750000       1.35750000       1.35750000       0.00000000
Si      -1.35750000       1.35750000      -1.35750000       0.00000000
Si      -1.35750000      -1.35750000       1.35750000       0.00000000
Si       1.35750000      -1.35750000      -1.35750000       0.00000000
Si       2.39205618      -0.04174584       2.72424186       0.00000000
Si      -2.59425852      -2.73953274      -0.12929916       0.00000000
Si      -2.64998118       0.08780310      -2.69207454       0.00000000
Si       2.74628766      -2.59747308       0.27378060       0.00000000
Si      -2.65710534       2.70129468      -0.17624694       0.00000000
Si       0.00000000      -2.71500000       2.71500000       0.00000000
