10
Lattice="10.86 0.0 0.0 0.0 10.86 0.0 0.0 0.0 10.86" Properties=species:S:1:pos:R:3:initial_magmoms:R:1 pbc="T T T"
Si      -1.20465636      -1.30805442       1.35931362       0.00000000
Si      -1.20465636       1.40694558      -1.35568638       0.00000000
Si       1.51034364       1.40694558       1.35931362       0.00000000
Si      -2.44614984       0.12638868      -2.58532074       0.00000000
Si      -2.56215636       0.04944558       2.71681362       0.00000000
Si      -2.56215636       2.76444558       0.00181362       0.00000000
Si       0.15284364      -2.66555442       2.71681362       0.00000000
Si       0.15284364       2.76444558      -2.71318638       0.00000000
Si       0.15284364       2.76444558       2.71681362       0.00000000
Si       2.86784364       0.04944558       2.71681362       0.00000000
