10
Lattice="10.86 0.0 0.0 0.0 10.86 0.0 0.0 0.0 10.86" Properties=species:S:1:pos:R:3:initial_magmoms:R:1 pbc="T T T"
Si      -1.45927992      -1.07681244       1.18536900       0.00000000
Si       1.25572008      -1.07681244      -1.52963100       0.00000000
Si       1.25572008       1.63818756       1.18536900       0.00000000
Si      -0.10177992      -2.43431244       2.54286900       0.00000000
Si      -2.67721806      -2.33582310      -0.11585448       0.00000000
Si       2.61322008      -2.43431244      -0.17213100       0.00000000
Si       2.61322008       0.28068756       2.54286900       0.00000000
Si      -2.81677992       0.28068756       2.54286900       0.00000000
Si       0.01896156      -2.45884518      -3.01643016       0.00000000
Si       2.61322008       0.28068756      -2.88713100       0.00000000
