10
Lattice="16.28999089631971 0.0 0.0 0.0 16.28999089631971 0.0 0.0 0.0 34.64500226677339" Properties=species:S:1:pos:R:3:initial_magmoms:R:1 pbc="T T T"
Si       1.34022717      -1.53267723       1.08594820       0.00000000
Si      -2.00859937      -0.92488104      -0.72331876       0.00000000
Si      -0.44223277       2.00216222       1.18032124       0.00000000
Si       1.13744925      -0.31452732      -2.09207428       0.00000000
Si       3.37189968      -0.44214318       0.69587990       0.00000000
Si      -2.45435633       0.89728482      -2.28968948       0.00000000
Si      -1.13450076      -2.95010271      -1.55109226       0.00000000
Si       0.49622598      -3.49122393       0.05948550       0.00000000
Si       1.34731332       1.88239814      -2.80493024       0.00000000
Si      -0.86769825       2.68479467      -2.33469336       0.00000000
