10
Lattice="16.28999089631971 0.0 0.0 0.0 16.28999089631971 0.0 0.0 0.0 34.64500226677339" Properties=species:S:1:pos:R:3:initial_magmoms:R:1 pbc="T T T"
Si       0.43759827       0.10220346      -2.23581647       0.00000000
Si      -2.34009597      -0.10829592       0.33893225       0.00000000
Si       0.66606552       2.13101775       0.91157981       0.00000000
Si       0.65234934      -2.32718940       0.06752315       0.00000000
Si      -2.04535774       0.07783362       2.77679848       0.00000000
Si      -1.43980631       2.55622095       2.08978770       0.00000000
Si      -2.81179751      -2.33217414      -0.32119400       0.00000000
Si      -0.98116299      -3.24166113      -1.42799850       0.00000000
Si      -0.40640292      -1.85634324      -3.26227917       0.00000000
Si       2.46927078       1.19273751      -2.62588477       0.00000000
