10
Lattice="16.28999089631971 0.0 0.0 0.0 16.28999089631971 0.0 0.0 0.0 34.64500226677339" Properties=species:S:1:pos:R:3:initial_magmoms:R:1 pbc="T T T"
Si      -1.39795893       1.26787351       1.53217955       0.00000000
Si       1.17059940       1.74416053      -1.23827340       0.00000000
Si      -1.61049456      -1.21141562      -1.40422305       0.00000000
Si       1.32043482      -1.42489076       1.51133710       0.00000000
Si      -0.80058834       3.20980441      -1.16723283       0.00000000
Si      -2.73272895       2.63401807       0.15044947       0.00000000
Si      -2.69894349      -2.70142024       0.12728927       0.00000000
Si       2.90486538      -2.62044265       0.12736549       0.00000000
Si      -0.04336398       2.63776477       2.90674157       0.00000000
Si       2.66910021      -0.08100365       2.90289597       0.00000000
