10
Lattice="16.28999089631971 0.0 0.0 0.0 16.28999089631971 0.0 0.0 0.0 34.64500226677339" Properties=species:S:1:pos:R:3:initial_magmoms:R:1 pbc="T T T"
Si      -1.33038801      -1.35065808       1.38067340       0.00000000
Si       1.35612621      -1.35256401      -1.35600615       0.00000000
Si      -1.35581670       1.36074793      -1.35683763       0.00000000
Si       1.35177678       1.34659029       1.37984192       0.00000000
Si      -2.55756258       0.09830013       2.80053032       0.00000000
Si      -0.00100998      -2.71325142      -2.71336345       0.00000000
Si       2.71396287       0.00169771      -2.71322487       0.00000000
Si      -2.71518462       2.71391587       0.00439992       0.00000000
Si      -2.71595025       0.00197573      -2.71343274       0.00000000
Si      -0.00099369       2.71648969      -2.71319022       0.00000000
