10
Lattice="16.28999089631971 0.0 0.0 0.0 16.28999089631971 0.0 0.0 0.0 34.64500226677339" Properties=species:S:1:pos:R:3:initial_magmoms:R:1 pbc="T T T"
Si       2.35471950      -0.07180632      -0.28758832       0.00000000
Si      -0.51233679      -0.45835173       2.32253296       0.00000000
Si      -0.75034998      -2.25638817      -0.58432293       0.00000000
Si      -1.48423077       1.86979878       0.62811424       0.00000000
Si       0.76960476       0.52510815      -2.71374454       0.00000000
Si      -0.89536356       1.76549391       2.98279778       0.00000000
Si       3.13175250       2.07987462       0.32032787       0.00000000
Si       2.62620864      -1.14614811      -2.55839627       0.00000000
Si       1.37039625      -3.57740522      -0.32025858       0.00000000
Si       3.19088520      -2.03849313       0.72106684       0.00000000
