10
Lattice="16.28999089631971 0.0 0.0 0.0 16.28999089631971 0.0 0.0 0.0 34.64500226677339" Properties=species:S:1:pos:R:3:initial_magmoms:R:1 pbc="T T T"
Si      -0.26495685       1.42851897       1.86504545       0.00000000
Si       2.26302309      -0.23292908      -0.74569945       0.00000000
Si      -0.54090945      -2.26794986       0.59631011       0.00000000
Si      -1.51451388       1.06484472      -1.54644983       0.00000000
Si      -2.61185715       1.04067036       2.48643856       0.00000000
Si       1.07657352       0.41531355       3.59875162       0.00000000
Si      -1.41670872      -3.27664295      -1.35385816       0.00000000
Si       2.18870811      -0.51529668      -3.14791596       0.00000000
Si      -1.89754065       3.28869036      -0.88618501       0.00000000
Si      -3.68777907       0.16011441      -1.45737748       0.00000000
