10
Lattice="16.28999089631971 0.0 0.0 0.0 16.28999089631971 0.0 0.0 0.0 34.64500226677339" Properties=species:S:1:pos:R:3:initial_magmoms:R:1 pbc="T T T"
Si      -1.14474880       1.52702297       1.36064858       0.00000000
Si       1.34886739       1.36510037      -1.36861693       0.00000000
Si      -1.36890259      -1.34802911      -1.36965629       0.00000000
Si       1.50648943      -1.25051537       1.42751347       0.00000000
Si      -2.43126688      -0.04422898       2.41008093       0.00000000
Si       2.51995549       0.41229827       2.83718476       0.00000000
Si      -2.70796882      -2.70616878       0.01080925       0.00000000
Si      -0.00908005      -2.70258498      -2.72878048       0.00000000
Si       2.73366400      -2.69947359       0.00765655       0.00000000
Si      -2.70844123       2.72878514       0.00308341       0.00000000
