10
Lattice="16.28999089631971 0.0 0.0 0.0 16.28999089631971 0.0 0.0 0.0 34.64500226677339" Properties=species:S:1:pos:R:3:initial_magmoms:R:1 pbc="T T T"
Si       1.95281262       1.11762432       0.63833452       0.00000000
Si       0.37300842      -2.34208565      -0.28045145       0.00000000
Si      -0.15332148       1.04285322      -2.17633097       0.00000000
Si      -1.66291578       0.39995208       1.71184516       0.00000000
Si      -3.44112403       0.10221975       0.20398989       0.00000000
Si      -2.99889126      -1.89994247      -0.97633135       0.00000000
Si       3.53510919       0.41749641      -1.06401790       0.00000000
Si       1.17371079       3.35306844       1.10396361       0.00000000
Si      -1.45663551       2.97878940      -1.87827985       0.00000000
Si      -1.65866409      -3.43261970       0.10961685       0.00000000
