10
Lattice="16.28999089631971 0.0 0.0 0.0 16.28999089631971 0.0 0.0 0.0 34.64500226677339" Properties=species:S:1:pos:R:3:initial_magmoms:R:1 pbc="T T T"
Si      -1.16582643       0.07271856      -2.00833726       0.00000000
Si       1.41532407      -1.84825363       0.30889501       0.00000000
Si       1.30469868       1.99300005       0.12098042       0.00000000
Si      -1.26012924      -0.34437060       2.03657295       0.00000000
Si      -1.94492826       2.30816268      -1.54270817       0.00000000
Si       0.58839480       0.35245044       3.36954016       0.00000000
Si       0.44670438       2.58952356       2.23096617       0.00000000
Si       2.38931946      -0.91812069       2.33164460       0.00000000
Si      -0.36009045      -3.46997267       0.47744304       0.00000000
Si       0.19662030       3.33980838      -1.45422478       0.00000000
