10
Lattice="16.28999089631971 0.0 0.0 0.0 16.28999089631971 0.0 0.0 0.0 34.64500226677339" Properties=species:S:1:pos:R:3:initial_magmoms:R:1 pbc="T T T"
Si      -0.83616570      -2.09877102       0.77116354       0.00000000
Si      -0.51292323       1.79449011       1.56009997       0.00000000
Si      -1.49543829       0.19495872      -1.95591934       0.00000000
Si       2.35072845      -0.04079016       0.88511101       0.00000000
Si       1.54579068      -0.65945178       3.00829652       0.00000000
Si      -2.74005945       2.09082150      -0.76558569       0.00000000
Si       1.80113643       2.08059138      -2.44053390       0.00000000
Si      -2.87915976       1.74866634       1.70696022       0.00000000
Si      -3.16081386      -2.11988286       0.30345574       0.00000000
Si      -0.24729849      -2.20307589       3.12584708       0.00000000
