10
Lattice="16.28999089631971 0.0 0.0 0.0 16.28999089631971 0.0 0.0 0.0 34.64500226677339" Properties=species:S:1:pos:R:3:initial_magmoms:R:1 pbc="T T T"
Si      -1.40090742       1.03448016      -1.58369323       0.00000000
Si       2.14154856       1.03164570       0.08848339       0.00000000
Si      -1.31751891       0.55798137       1.93263789       0.00000000
Si       0.77910183      -2.23544412      -0.46562909       0.00000000
Si       1.94492826      -2.30816268       1.54270817       0.00000000
Si       0.11893329       1.97669376      -3.08132822       0.00000000
Si       3.24962694      -0.31516263       1.66368858       0.00000000
Si      -1.17371079      -3.35306844      -1.10396361       0.00000000
Si       1.72398699       3.36002427       0.30560374       0.00000000
Si      -1.92938760       2.86365168       1.58511367       0.00000000
