10
Lattice="16.28999089631971 0.0 0.0 0.0 16.28999089631971 0.0 0.0 0.0 34.64500226677339" Properties=species:S:1:pos:R:3:initial_magmoms:R:1 pbc="T T T"
Si      -1.48693491       1.80068031       0.57936870       0.00000000
Si      -1.11654918      -1.90641870       1.07649011       0.00000000
Si       2.34367488      -0.38400417       0.80580856       0.00000000
Si      -0.45592452      -0.22369428      -2.50393429       0.00000000
Si      -0.47439738      -3.81603024      -0.36103577       0.00000000
Si      -0.61501266       3.89619333      -0.29406694       0.00000000
Si      -2.41699617      -1.63914867      -2.69902041       0.00000000
Si      -3.55599297       1.58472378      -0.85912725       0.00000000
Si      -1.73073105       2.04349905       3.01972938       0.00000000
Si       2.20178898      -1.74332322       2.90903853       0.00000000
