10
Lattice="16.28999089631971 0.0 0.0 0.0 16.28999089631971 0.0 0.0 0.0 34.64500226677339" Properties=species:S:1:pos:R:3:initial_magmoms:R:1 pbc="T T T"
Si       0.52138426      -1.38003993       1.84592140       0.00000000
Si       0.99671179       2.10888711       0.39176590       0.00000000
Si      -2.32341568       0.43192935      -0.33234969       0.00000000
Si       1.30543336      -0.68978376      -1.91011862       0.00000000
Si       1.10242738       3.06175437      -1.75927420       0.00000000
Si       2.73639583      -2.18243646       1.37568452       0.00000000
Si      -1.06527382      -3.16754978       1.89092528       0.00000000
Si       3.15873037      -2.00259486      -0.96320089       0.00000000
Si       3.20764924       1.87536996       1.12284515       0.00000000
Si      -2.57736049       1.86984765      -2.27001111       0.00000000
