10
Lattice="16.28999089631971 0.0 0.0 0.0 16.28999089631971 0.0 0.0 0.0 34.64500226677339" Properties=species:S:1:pos:R:3:initial_magmoms:R:1 pbc="T T T"
Si      -1.82431710       0.69470334       1.32032177       0.00000000
Si      -0.59525289      -1.75624119      -1.46544977       0.00000000
Si       1.74127068      -1.12104522       1.21205608       0.00000000
Si      -0.03938922       1.91713752      -1.51506144       0.00000000
Si      -2.27484963      -2.71811682      -0.13563526       0.00000000
Si      -2.66321952      -1.41099093       1.88541672       0.00000000
Si      -0.46874475       0.60771474      -3.66928889       0.00000000
Si       3.68685054      -0.86224599      -0.18022340       0.00000000
Si      -0.94851783       1.70339643       3.27049004       0.00000000
Si       1.78109973       3.45604960      -0.47373603       0.00000000
