10
Lattice="16.28999089631971 0.0 0.0 0.0 16.28999089631971 0.0 0.0 0.0 34.64500226677339" Properties=species:S:1:pos:R:3:initial_magmoms:R:1 pbc="T T T"
Si       2.17326519       0.90473031      -0.08907235       0.00000000
Si      -0.42233454      -0.17984160       2.33888541       0.00000000
Si       0.74771100      -1.97937251      -1.14664628       0.00000000
Si      -1.85329701       1.31281110      -0.94691773       0.00000000
Si       1.79023842       3.12857595       0.57119247       0.00000000
Si       1.93525200      -0.89330613      -2.99592825       0.00000000
Si      -2.88485963      -0.04450428      -2.50147450       0.00000000
Si       2.68560198       1.36308204      -2.41160531       0.00000000
Si      -3.15873037       2.00259486       0.96320089       0.00000000
Si       1.20137121       3.23288082      -1.78349107       0.00000000
