10
Lattice="16.28999089631971 0.0 0.0 0.0 16.28999089631971 0.0 0.0 0.0 34.64500226677339" Properties=species:S:1:pos:R:3:initial_magmoms:R:1 pbc="T T T"
Si       0.61496379      -1.71370800       1.54939466       0.00000000
Si       1.77541452       1.62171904      -0.16854803       0.00000000
Si      -0.41537871      -0.56720151      -2.30718522       0.00000000
Si      -1.90055430       1.01250073       1.10521083       0.00000000
Si      -1.71224190      -2.11286187       1.96991593       0.00000000
Si       0.36009045       3.46997267      -0.47744304       0.00000000
Si      -1.47737268      -0.06374277       3.24426376       0.00000000
Si      -0.90003879       3.12560207       1.55912991       0.00000000
Si       1.06041384      -0.55289889       3.51979562       0.00000000
Si       2.30180958      -3.02871825       0.49445375       0.00000000
