10
Lattice="16.28999089631971 0.0 0.0 0.0 16.28999089631971 0.0 0.0 0.0 34.64500226677339" Properties=species:S:1:pos:R:3:initial_magmoms:R:1 pbc="T T T"
Si      -1.35521397      -1.35771774       1.35746124       0.00000000
Si      -1.35770634       1.35786924      -1.35711479       0.00000000
Si       1.35809730      -1.35771123      -1.35725337       0.00000000
Si       1.35922131       1.35967743       1.35694156       0.00000000
Si      -2.71375110       0.00167787      -2.71481854       0.00000000
Si      -2.71438641       2.71510317       0.00006929       0.00000000
Si       0.00162900       2.71577106      -2.71384848       0.00000000
Si      -0.00597843      -2.71405151       2.71571931       0.00000000
Si       2.71630863       0.00019548      -2.71350203       0.00000000
Si      -2.71469592      -2.71516665       0.00000000       0.00000000
