10
Lattice="16.28999089631971 0.0 0.0 0.0 16.28999089631971 0.0 0.0 0.0 34.64500226677339" Properties=species:S:1:pos:R:3:initial_magmoms:R:1 pbc="T T T"
Si      -1.03156262      -1.35731538      -1.55455677       0.00000000
Si      -1.30543336       0.68978376       1.91011862       0.00000000
Si       0.73002006       1.89895788      -1.30428113       0.00000000
Si       1.85329701      -1.31281110       0.94691773       0.00000000
Si      -0.30872156       2.79867087       2.30188453       0.00000000
Si       3.05466822       1.92006972      -0.83657334       0.00000000
Si      -0.20300598       3.75153813       0.15084442       0.00000000
Si      -1.49165575      -3.42923138      -0.58522371       0.00000000
Si       0.16402401       0.55311066      -3.83336771       0.00000000
Si       1.43096247      -1.49265270       3.28580314       0.00000000
