10
Lattice="16.28999089631971 0.0 0.0 0.0 16.28999089631971 0.0 0.0 0.0 34.64500226677339" Properties=species:S:1:pos:R:3:initial_magmoms:R:1 pbc="T T T"
Si      -1.56818943      -1.74187178      -0.29046386       0.00000000
Si       1.98967689      -0.86073102      -1.00040964       0.00000000
Si       0.86102424       0.07711686       2.23359919       0.00000000
Si      -0.61366059       2.15677971      -0.93461875       0.00000000
Si       2.14397577       2.00277405       1.67830878       0.00000000
Si       3.28885326       1.08569592      -0.37129070       0.00000000
Si      -0.16189002      -3.44149775       0.68292267       0.00000000
Si      -1.64250441      -2.02423938      -2.69268037       0.00000000
Si       1.87802523      -3.31195967      -0.52539175       0.00000000
Si       1.82014686      -0.87009777      -3.32356621       0.00000000
