10
Lattice="16.28999089631971 0.0 0.0 0.0 16.28999089631971 0.0 0.0 0.0 34.64500226677339" Properties=species:S:1:pos:R:3:initial_magmoms:R:1 pbc="T T T"
Si      -1.34153037       1.01320542      -1.73370617       0.00000000
Si       2.05100874       1.28267460       0.06291536       0.00000000
Si      -1.58229657       0.70012791       1.70235243       0.00000000
Si       0.31346847      -2.48670827       0.23745698       0.00000000
Si       0.96350463       3.44860929       0.24729616       0.00000000
Si      -3.53510919      -0.41749641       1.06401790       0.00000000
Si      -1.07657352      -0.41531355      -3.59875162       0.00000000
Si      -0.52458687       3.37328433      -1.62647983       0.00000000
Si      -0.41647014       0.62740935       3.71068969       0.00000000
Si      -3.68843067       0.62535681      -1.11231306       0.00000000
