10
Lattice="16.28999089631971 0.0 0.0 0.0 16.28999089631971 0.0 0.0 0.0 34.64500226677339" Properties=species:S:1:pos:R:3:initial_magmoms:R:1 pbc="T T T"
Si       1.57084470      -1.22755317       1.30466222       0.00000000
Si      -0.35675100      -1.43621178      -1.88202151       0.00000000
Si      -1.91827782       0.43612891       1.39605579       0.00000000
Si       0.60753555       2.22787253      -0.78599161       0.00000000
Si      -2.60366328      -0.82973508      -2.38607193       0.00000000
Si       3.57088203      -1.23077859       0.01635245       0.00000000
Si      -0.94428243       1.36626185       3.41880538       0.00000000
Si       0.37603836       3.77495012       1.00810084       0.00000000
Si       2.80344384       2.19016118      -1.76987557       0.00000000
Si      -0.86612301       2.93964779      -2.56061355       0.00000000
