10
Lattice="16.28999089631971 0.0 0.0 0.0 16.28999089631971 0.0 0.0 0.0 34.64500226677339" Properties=species:S:1:pos:R:3:initial_magmoms:R:1 pbc="T T T"
Si      -1.34078103      -1.33938009       1.37859470       0.00000000
Si      -1.34824185       1.35850455      -1.35922813       0.00000000
Si       1.36492281      -1.35633798      -1.35881239       0.00000000
Si       1.37067318       1.37736837       1.38247494       0.00000000
Si       0.12359223      -2.50129692       2.84847903       0.00000000
Si      -2.70798444       2.71098180       0.00374166       0.00000000
Si      -2.70868491      -0.00091224      -2.71568467       0.00000000
Si      -2.70969489      -2.71585251       0.00571643       0.00000000
Si       0.00602730       2.71381626      -2.71551144       0.00000000
Si       2.71689507       2.71375110       0.00110864       0.00000000
