10
Lattice="16.28999089631971 0.0 0.0 0.0 16.28999089631971 0.0 0.0 0.0 34.64500226677339" Properties=species:S:1:pos:R:3:initial_magmoms:R:1 pbc="T T T"
Si       1.63918125      -0.98631063       1.36872087       0.00000000
Si      -0.95780313      -1.81361457      -1.18700773       0.00000000
Si       1.87813926       1.07507484      -1.08106325       0.00000000
Si      -1.50874722       1.90768932       0.18535087       0.00000000
Si       0.39833937       2.20108851      -2.60069784       0.00000000
Si      -2.35367694      -0.52377237      -2.59692153       0.00000000
Si      -0.95915520      -0.21369222       3.51099578       0.00000000
Si       0.46993392      -2.06159724       3.08926193       0.00000000
Si      -0.28795833       3.26107881       1.91763659       0.00000000
Si       2.35737477       0.70121934       2.89899147       0.00000000
