10
Lattice="16.28999089631971 0.0 0.0 0.0 16.28999089631971 0.0 0.0 0.0 34.64500226677339" Properties=species:S:1:pos:R:3:initial_magmoms:R:1 pbc="T T T"
Si      -1.39587381       1.28984220      -1.40991380       0.00000000
Si       0.95780313       1.81361457       1.18700773       0.00000000
Si      -0.93441069      -1.80274914       1.24219725       0.00000000
Si       1.34643366      -1.41214752      -1.41022561       0.00000000
Si       2.59698438       0.82730394       2.55572860       0.00000000
Si       2.81080692      -2.57406435       0.05965873       0.00000000
Si      -0.02076975       2.63821437      -2.78507864       0.00000000
Si      -2.58496236       2.84570010       0.02328145       0.00000000
Si       0.92219319      -3.47400540       1.39754553       0.00000000
Si       2.68721469      -0.07276743      -2.78882031       0.00000000
