10
Lattice="16.28999089631971 0.0 0.0 0.0 16.28999089631971 0.0 0.0 0.0 34.64500226677339" Properties=species:S:1:pos:R:3:initial_magmoms:R:1 pbc="T T T"
Si       1.77820826       0.29773233       1.50785528       0.00000000
Si       0.44223277      -2.00216222      -1.18032124       0.00000000
Si      -0.15185212       1.86821865      -1.47972352       0.00000000
Si      -2.13871314      -0.33106004       1.02466116       0.00000000
Si       3.44112403      -0.10221975      -0.20398989       0.00000000
Si      -0.42546548       0.68263245      -3.51501460       0.00000000
Si      -2.18670348       2.83631706      -0.64713436       0.00000000
Si      -3.59318208       0.84846465      -0.41435446       0.00000000
Si      -1.76071998       0.42803604       3.28112606       0.00000000
Si      -1.56636660      -2.92704326      -1.90364000       0.00000000
