10
Lattice="16.28999089631971 0.0 0.0 0.0 16.28999089631971 0.0 0.0 0.0 34.64500226677339" Properties=species:S:1:pos:R:3:initial_magmoms:R:1 pbc="T T T"
Si      -1.94755095       0.61432848      -1.09450552       0.00000000
Si      -0.63206829       0.25915761       2.23671724       0.00000000
Si       1.58257350       1.68353892      -0.39294384       0.00000000
Si       0.71224767      -2.25668628      -0.01455091       0.00000000
Si      -3.32662977      -0.66241656       0.32309947       0.00000000
Si       1.47072636      -0.10583613       3.12144716       0.00000000
Si       2.22026184      -1.93088628       1.80739613       0.00000000
Si       0.84795966       3.31604127       1.20145471       0.00000000
Si      -0.97840998       2.54524734       2.47292700       0.00000000
Si      -2.48189553      -1.14106563       2.51886630       0.00000000
