10
Lattice="16.28999089631971 0.0 0.0 0.0 16.28999089631971 0.0 0.0 0.0 34.64500226677339" Properties=species:S:1:pos:R:3:initial_magmoms:R:1 pbc="T T T"
Si       2.21470695       0.48000114       0.66948040       0.00000000
Si      -1.07663868       1.83743055       1.07881133       0.00000000
Si      -0.39183966       0.64910763      -2.33129815       0.00000000
Si      -0.03091842      -1.94674785       1.51062688       0.00000000
Si      -0.92629827      -0.38288016       3.00066738       0.00000000
Si      -1.93757984      -2.64550903      -1.13964799       0.00000000
Si      -2.80062404       1.13559219      -2.04131932       0.00000000
Si       1.45468071       2.24414298      -2.53826751       0.00000000
Si       3.45699864      -0.96637167      -0.89162428       0.00000000
Si       2.78541081       2.37293172      -0.54780708       0.00000000
