10
Lattice="16.28999089631971 0.0 0.0 0.0 16.28999089631971 0.0 0.0 0.0 34.64500226677339" Properties=species:S:1:pos:R:3:initial_magmoms:R:1 pbc="T T T"
Si       2.10793482       0.25794238       0.66196243       0.00000000
Si       0.15135039      -0.20767469      -2.21236179       0.00000000
Si      -1.95805800       0.78117718       0.84201261       0.00000000
Si       1.64784168      -1.81397362       1.63129549       0.00000000
Si      -0.07364709      -3.33987421       0.34676202       0.00000000
Si      -1.66254111       2.94675349       0.06838927       0.00000000
Si      -3.35310102      -1.05887281       0.19245310       0.00000000
Si      -1.78852797       0.79054393       3.16516918       0.00000000
Si      -2.17704447      -2.70182749       1.54724667       0.00000000
Si       1.43786847       1.36357726      -3.26179414       0.00000000
