10
Lattice="16.28999089631971 0.0 0.0 0.0 16.28999089631971 0.0 0.0 0.0 34.64500226677339" Properties=species:S:1:pos:R:3:initial_magmoms:R:1 pbc="T T T"
Si      -1.74643461      -0.18148689       1.64047642       0.00000000
Si       0.80273115       2.27224323       0.04843374       0.00000000
Si      -0.37799316      -0.75909608      -2.25646490       0.00000000
Si       1.66577535      -1.50885799       0.95010507       0.00000000
Si       3.21151553       1.78575867      -0.24154509       0.00000000
Si      -1.06502391      -3.00051116      -1.90925250       0.00000000
Si       1.76071998      -0.42803604      -3.28112606       0.00000000
Si      -0.39920274       3.39804513      -1.73661635       0.00000000
Si      -2.64587067      -2.37300407       1.62218385       0.00000000
Si       3.53892824      -0.13030371      -1.77327079       0.00000000
