10
Lattice="16.28999089631971 0.0 0.0 0.0 16.28999089631971 0.0 0.0 0.0 34.64500226677339" Properties=species:S:1:pos:R:3:initial_magmoms:R:1 pbc="T T T"
Si       1.23560225      -1.42483743       1.43953183       0.00000000
Si       0.82145583       1.72906947      -1.40569200       0.00000000
Si      -0.68784525      -1.83971115      -1.38469711       0.00000000
Si      -1.48165695       1.25706672       1.41556440       0.00000000
Si      -2.55813273      -2.63857927       0.00576493       0.00000000
Si       2.58850285      -2.76218127       0.13280823       0.00000000
Si       2.58955518      -0.08819406       2.78522762       0.00000000
Si      -0.12015504       2.62933632       2.78176312       0.00000000
Si       2.62936143       2.78324424      -0.12266070       0.00000000
Si      -2.71573848       2.72189610       0.02632675       0.00000000
