10
Lattice="16.28999089631971 0.0 0.0 0.0 16.28999089631971 0.0 0.0 0.0 34.64500226677339" Properties=species:S:1:pos:R:3:initial_magmoms:R:1 pbc="T T T"
Si       1.35570255       1.35687555       1.35652582       0.00000000
Si       1.35342521      -1.35984033      -1.35978245       0.00000000
Si      -1.35908689      -1.35821133       1.35680298       0.00000000
Si      -1.35628501       1.35769005      -1.36324696       0.00000000
Si      -0.00052772      -2.69648370      -2.70547824       0.00000000
Si      -0.00182831       2.71409319       2.71322487       0.00000000
Si       2.71345287      -0.00110772       2.71433351       0.00000000
Si       2.71335513       2.71555929      -0.00051968       0.00000000
Si       2.71415334      -2.71495656      -0.00090077       0.00000000
Si      -0.00135541      -2.71585251       2.71370990       0.00000000
