10
Lattice="16.28999089631971 0.0 0.0 0.0 16.28999089631971 0.0 0.0 0.0 34.64500226677339" Properties=species:S:1:pos:R:3:initial_magmoms:R:1 pbc="T T T"
Si       1.25896908       1.37559276      -1.46957253       0.00000000
Si      -1.42227990      -1.34864910      -1.48145577       0.00000000
Si      -0.10889865       1.73767059       1.75040507       0.00000000
Si      -1.75257594      -2.48028282       1.83739872       0.00000000
Si       2.49561727      -0.15058476      -2.82932034       0.00000000
Si      -3.05033508      -2.22922134      -0.08280160       0.00000000
Si       0.62019288       0.61035372       3.68307760       0.00000000
Si       2.51565885       2.85001695       0.00332592       0.00000000
Si      -0.23095962       2.57046426      -2.86008512       0.00000000
Si      -0.83333124      -1.25214714       3.62563616       0.00000000
