10
Lattice="16.28999089631971 0.0 0.0 0.0 16.28999089631971 0.0 0.0 0.0 34.64500226677339" Properties=species:S:1:pos:R:3:initial_magmoms:R:1 pbc="T T T"
Si      -1.65019329       1.70588880       0.09035422       0.00000000
Si      -1.28295153      -1.92565719       0.55529041       0.00000000
Si       1.50897528       1.14447024       1.52399986       0.00000000
Si       1.14487749      -0.91707813      -2.04959948       0.00000000
Si      -2.14397577      -2.00277405      -1.67830878       0.00000000
Si      -0.54771867       3.17757627      -1.37790180       0.00000000
Si       3.06606863       2.12428116       0.04510782       0.00000000
Si      -1.03187376       1.69758090      -3.19621112       0.00000000
Si       2.22843942      -0.57536280       2.99655186       0.00000000
Si      -2.75763636       0.15400566      -2.61292753       0.00000000
