10
Lattice="16.28999089631971 0.0 0.0 0.0 16.28999089631971 0.0 0.0 0.0 34.64500226677339" Properties=species:S:1:pos:R:3:initial_magmoms:R:1 pbc="T T T"
Si      -0.71946414       1.71983304      -1.47255200       0.00000000
Si       2.03485136      -0.96809841      -0.83258916       0.00000000
Si       0.02678076       0.98976411       2.19164407       0.00000000
Si      -1.40647860      -1.98785241       0.23277990       0.00000000
Si       0.04799034      -3.16737710       1.67179552       0.00000000
Si       2.18670348      -2.83631706       0.64713436       0.00000000
Si      -2.22843942       0.57536280      -2.99655186       0.00000000
Si      -1.12326066       3.61763433       0.05848080       0.00000000
Si      -2.29840497       1.39553172       2.76335622       0.00000000
Si       0.47309418       3.33555669       1.87859165       0.00000000
