10
Lattice="16.28999089631971 0.0 0.0 0.0 16.28999089631971 0.0 0.0 0.0 34.64500226677339" Properties=species:S:1:pos:R:3:initial_magmoms:R:1 pbc="T T T"
Si       1.79358506       0.92636343      -1.22321178       0.00000000
Si      -0.44631342      -2.34579258       0.31305242       0.00000000
Si      -1.59635484       0.28207764      -1.82011086       0.00000000
Si       0.26217894       0.97101432       2.23474248       0.00000000
Si      -2.77149915      -1.94002497       0.88476456       0.00000000
Si      -3.53540241      -0.35082144      -0.73735000       0.00000000
Si      -0.47309418      -3.33555669      -1.87859165       0.00000000
Si       2.07730799       3.23941311      -0.51801236       0.00000000
Si      -1.19255832      -1.61572365      -3.35114365       0.00000000
Si       2.69316773       0.86946246       2.69784248       0.00000000
