10
Lattice="16.28999089631971 0.0 0.0 0.0 16.28999089631971 0.0 0.0 0.0 34.64500226677339" Properties=species:S:1:pos:R:3:initial_magmoms:R:1 pbc="T T T"
Si      -1.80354735       1.46943945      -0.44446098       0.00000000
Si       2.10211047       0.68924619       0.88369057       0.00000000
Si       0.05277960      -0.96780519      -2.22899140       0.00000000
Si      -1.47492918      -1.48809150       1.45834754       0.00000000
Si      -3.30827094       0.10736739       0.67703301       0.00000000
Si       3.16850504      -1.41077916       1.28657752       0.00000000
Si      -1.48269951      -2.76640038      -1.98159130       0.00000000
Si       3.08645769       1.94323410      -0.87901349       0.00000000
Si      -0.96498702      -3.66604821       0.15029010       0.00000000
Si      -1.46065914       2.44644849      -2.53705493       0.00000000
