10
Lattice="16.28999089631971 0.0 0.0 0.0 16.28999089631971 0.0 0.0 0.0 34.64500226677339" Properties=species:S:1:pos:R:3:initial_magmoms:R:1 pbc="T T T"
Si       1.34364807       1.35009891       1.40999695       0.00000000
Si      -1.37194380      -1.36287027       1.41283784       0.00000000
Si      -1.29720528       1.55128041      -1.45366353       0.00000000
Si       1.51027848      -1.38021912      -1.60483016       0.00000000
Si      -2.71256193      -2.69952993       0.03943296       0.00000000
Si       2.70793557      -2.71231758       0.03253514       0.00000000
Si       2.70923877       2.71173114       0.02857868       0.00000000
Si      -2.71743264       2.72337849       0.05092818       0.00000000
Si       2.70647451      -0.00366525       2.77466435       0.00000000
Si      -0.01109349       2.71410948       2.77417932       0.00000000
