10
Lattice="16.28999089631971 0.0 0.0 0.0 16.28999089631971 0.0 0.0 0.0 34.64500226677339" Properties=species:S:1:pos:R:3:initial_magmoms:R:1 pbc="T T T"
Si      -1.35677781      -1.35560493      -1.35576363       0.00000000
Si       1.35672101      -1.35728280       1.35673369       0.00000000
Si      -1.35777150       1.35777150       1.35753053       0.00000000
Si       1.36046439       1.35848826      -1.35638724       0.00000000
Si       2.71310343      -0.00061902      -2.71422957       0.00000000
Si      -2.71267596       0.00312768       2.71478389       0.00000000
Si       0.00114030      -2.71202436       2.71596183       0.00000000
Si       2.71425187      -2.71450044       0.00003465       0.00000000
Si       2.71543616       2.71441899       0.00020787       0.00000000
Si      -2.71572219      -2.71438641       0.00013858       0.00000000
