10
Lattice="16.28999089631971 0.0 0.0 0.0 16.28999089631971 0.0 0.0 0.0 34.64500226677339" Properties=species:S:1:pos:R:3:initial_magmoms:R:1 pbc="T T T"
Si      -1.35490446      -1.35464382       1.35725337       0.00000000
Si       1.35721764       1.35786924       1.35753053       0.00000000
Si       1.35777150      -1.35777150      -1.35753053       0.00000000
Si      -1.35817875       1.35811359      -1.35718408       0.00000000
Si       0.00099369      -2.71337643      -2.71329416       0.00000000
Si      -2.71298547       0.00185706      -2.71377919       0.00000000
Si       2.71300914       0.00262269       2.71526893       0.00000000
Si       0.00006516       2.71352304       2.71596183       0.00000000
Si       2.71449251      -2.71505430      -0.00079684       0.00000000
Si       2.71485155       2.71487511      -0.00006929       0.00000000
