10
Lattice="16.28999089631971 0.0 0.0 0.0 16.28999089631971 0.0 0.0 0.0 34.64500226677339" Properties=species:S:1:pos:R:3:initial_magmoms:R:1 pbc="T T T"
Si      -1.01564892      -0.80850528       1.94174953       0.00000000
Si       1.97322399       0.88881498       0.92207725       0.00000000
Si      -1.49859855       1.76974560      -0.41220647       0.00000000
Si      -0.03987792      -1.66824261      -1.77455265       0.00000000
Si      -2.27576187       0.56576799      -2.65550626       0.00000000
Si       3.15723006       1.20544371      -1.11051152       0.00000000
Si      -3.30483375      -0.90388323       1.35160623       0.00000000
Si      -0.16558785      -2.99736000       2.28736826       0.00000000
Si       3.01938408      -0.81080217       2.17193105       0.00000000
Si      -0.16068456       3.75917814      -0.63137087       0.00000000
