10
Lattice="16.28999089631971 0.0 0.0 0.0 16.28999089631971 0.0 0.0 0.0 34.64500226677339" Properties=species:S:1:pos:R:3:initial_magmoms:R:1 pbc="T T T"
Si      -1.35395293      -1.33664337      -1.34569579       0.00000000
Si      -1.35342521       1.35984033       1.35978245       0.00000000
Si       1.36072814      -1.35511623       1.35888168       0.00000000
Si       1.36292728       1.37961639      -1.38755044       0.00000000
Si      -0.00105233      -2.67398721      -2.65241939       0.00000000
Si      -2.58955518       0.08819406      -2.78522762       0.00000000
Si      -2.70971022       2.71753038      -0.00346450       0.00000000
Si      -2.71616106      -2.71226708       0.00398418       0.00000000
Si      -2.71251210       0.00162900       2.71658544       0.00000000
Si       0.00292080      -2.71344322       2.71675866       0.00000000
