10
Lattice="16.28999089631971 0.0 0.0 0.0 16.28999089631971 0.0 0.0 0.0 34.64500226677339" Properties=species:S:1:pos:R:3:initial_magmoms:R:1 pbc="T T T"
Si       0.68703075       2.24141508      -0.34721241       0.00000000
Si      -2.00003733       0.00322542       1.28830977       0.00000000
Si      -0.47596122      -1.27301463      -2.01058919       0.00000000
Si       1.83050960      -1.17286371       1.10850211       0.00000000
Si       1.25937729      -0.35456814      -3.27551357       0.00000000
Si      -0.37452339      -3.45380580      -1.07326813       0.00000000
Si       1.35880805      -3.39674193       0.44837587       0.00000000
Si       1.06502391       3.00051116       1.90925250       0.00000000
Si      -3.57088203       1.23077859      -0.01635245       0.00000000
Si      -1.58084676       0.62750709       3.53143634       0.00000000
