10
Lattice="16.28999089631971 0.0 0.0 0.0 16.28999089631971 0.0 0.0 0.0 34.64500226677339" Properties=species:S:1:pos:R:3:initial_magmoms:R:1 pbc="T T T"
Si       1.16792784      -1.44539541      -1.60053071       0.00000000
Si      -0.82665234      -1.86240312       1.39259129       0.00000000
Si      -1.54452169       1.24568001      -1.58888998       0.00000000
Si       1.40471928       1.79828568       1.66230278       0.00000000
Si       2.54161467      -2.81127933      -0.21476449       0.00000000
Si      -2.69230531      -2.66719428      -0.25235434       0.00000000
Si       2.66727573       2.80831455      -0.17138892       0.00000000
Si       2.51312346      -0.11251503      -2.98449539       0.00000000
Si      -2.78116987       2.77185753      -0.22914217       0.00000000
Si      -0.20015523       2.59809210      -2.97971438       0.00000000
