10
Lattice="16.28999089631971 0.0 0.0 0.0 16.28999089631971 0.0 0.0 0.0 34.64500226677339" Properties=species:S:1:pos:R:3:initial_magmoms:R:1 pbc="T T T"
Si       1.21468014       2.01596895      -0.05162108       0.00000000
Si      -0.10571558      -0.95286726       2.15104010       0.00000000
Si      -2.22626375       0.67059414      -0.45329546       0.00000000
Si       0.93302604      -1.85258025      -1.45512555       0.00000000
Si      -2.76891623       1.48284612       1.75549789       0.00000000
Si      -1.10242738      -3.06175437       1.75927420       0.00000000
Si       1.35378045       2.35812411      -2.52416699       0.00000000
Si       0.20300598      -3.75153813      -0.15084442       0.00000000
Si       2.10522186      -1.18638441       2.88211935       0.00000000
Si      -1.50465191       0.41153427       3.52163180       0.00000000
