10
Lattice="16.28999089631971 0.0 0.0 0.0 16.28999089631971 0.0 0.0 0.0 34.64500226677339" Properties=species:S:1:pos:R:3:initial_magmoms:R:1 pbc="T T T"
Si      -1.35263904       1.35910728       1.35784233       0.00000000
Si       1.35880103      -1.35519768       1.35721872       0.00000000
Si       1.34829398       1.37207412      -1.36131723       0.00000000
Si      -1.35117798      -1.34954505      -1.38428688       0.00000000
Si      -2.71083912      -2.71306692      -0.00550856       0.00000000
Si      -2.71310343       0.00061902       2.71422957       0.00000000
Si       2.71455257      -2.71301805      -0.00640933       0.00000000
Si       2.71605125       2.71200807      -0.00287554       0.00000000
Si       0.00114845      -2.71388142       2.71426422       0.00000000
Si      -2.71546548       2.71287144      -0.00682507       0.00000000
