10
Lattice="16.28999089631971 0.0 0.0 0.0 16.28999089631971 0.0 0.0 0.0 34.64500226677339" Properties=species:S:1:pos:R:3:initial_magmoms:R:1 pbc="T T T"
Si       1.35497177       1.35593073       1.35659511       0.00000000
Si       1.35263904      -1.35910728      -1.35784233       0.00000000
Si      -1.36046439      -1.35848826       1.35638724       0.00000000
Si      -1.36282644       1.35376416      -1.36466740       0.00000000
Si       2.70093302       0.01296684      -2.71915956       0.00000000
Si       2.71158668      -0.00047241       2.71370990       0.00000000
Si       2.71144007      -2.71430496      -0.00062361       0.00000000
Si      -0.00338434       2.71415835       2.71384848       0.00000000
Si       2.71319939       2.71554300      -0.00117793       0.00000000
Si      -0.00374338      -2.71577106       2.71312093       0.00000000
