10
Lattice="16.28999089631971 0.0 0.0 0.0 16.28999089631971 0.0 0.0 0.0 34.64500226677339" Properties=species:S:1:pos:R:3:initial_magmoms:R:1 pbc="T T T"
Si      -1.35579150       1.35524655      -1.35773840       0.00000000
Si      -1.35468378      -1.35462753       1.36428631       0.00000000
Si       1.36060739      -1.35819504      -1.35739195       0.00000000
Si       1.35978964       1.35751086       1.36674610       0.00000000
Si       0.13524492      -2.54949903       2.75479889       0.00000000
Si      -2.63181978       0.13815549       2.70903282       0.00000000
Si      -2.71294398       2.71090035       0.00069290       0.00000000
Si       2.71269205       2.71239903       0.00346450       0.00000000
Si       0.00184240       2.71225242      -2.71533822       0.00000000
Si      -2.71300914      -0.00262269      -2.71526893       0.00000000
