10
Lattice="16.28999089631971 0.0 0.0 0.0 16.28999089631971 0.0 0.0 0.0 34.64500226677339" Properties=species:S:1:pos:R:3:initial_magmoms:R:1 pbc="T T T"
Si      -1.73333144      -0.05706387      -1.52164399       0.00000000
Si       1.83063452      -0.90948699      -1.10680451       0.00000000
Si      -0.63172019      -0.89474454       2.06203704       0.00000000
Si       0.47170155       2.22387822       0.66012624       0.00000000
Si       3.46414685       0.00498474       0.38871714       0.00000000
Si       0.01550547      -3.17788578       1.64595033       0.00000000
Si       2.81179751       2.33217414       0.32119400       0.00000000
Si      -1.35880805       3.39674193      -0.44837587       0.00000000
Si      -1.83476927       2.12372730      -2.45896506       0.00000000
Si      -3.73244024      -0.33506901      -0.34405971       0.00000000
