10
Lattice="16.28999089631971 0.0 0.0 0.0 16.28999089631971 0.0 0.0 0.0 34.64500226677339" Properties=species:S:1:pos:R:3:initial_magmoms:R:1 pbc="T T T"
Si       0.45076059       0.98738577      -2.11601399       0.00000000
Si      -0.56689200      -2.29703661      -0.39568079       0.00000000
Si      -2.02336135       0.79503345       1.22359287       0.00000000
Si       2.06905806       0.21595653       1.43849594       0.00000000
Si      -3.64510646       0.08765649      -0.44269409       0.00000000
Si       2.94098031       2.31146955       0.56506030       0.00000000
Si      -1.18275174       0.07291404      -3.61153563       0.00000000
Si      -2.99788079      -2.19548475      -0.85878080       0.00000000
Si       1.13899680      -3.22387245      -1.83989316       0.00000000
Si       2.51543664       0.16482222      -2.95622505       0.00000000
