10
Lattice="16.28999089631971 0.0 0.0 0.0 16.28999089631971 0.0 0.0 0.0 34.64500226677339" Properties=species:S:1:pos:R:3:initial_magmoms:R:1 pbc="T T T"
Si       1.41565150      -1.21713993       1.41549165       0.00000000
Si       1.35290242       1.35488817      -1.36328160       0.00000000
Si      -1.35978964      -1.35751086      -1.36674610       0.00000000
Si      -1.17295168       1.44992403       1.48013926       0.00000000
Si       2.38410829       0.47601009       2.78299994       0.00000000
Si       0.03214506      -2.43258570       2.86095124       0.00000000
Si       0.77675770       2.39423904       2.87428957       0.00000000
Si      -2.69890018       2.71073745       0.01500129       0.00000000
Si       2.71614736      -2.69744481       0.01105176       0.00000000
Si      -2.71447342      -2.71213839      -0.00245980       0.00000000
