10
Lattice="16.28999089631971 0.0 0.0 0.0 16.28999089631971 0.0 0.0 0.0 34.64500226677339" Properties=species:S:1:pos:R:3:initial_magmoms:R:1 pbc="T T T"
Si       1.17295168      -1.44992403      -1.48013926       0.00000000
Si      -1.65548658      -1.09610523       1.32995309       0.00000000
Si      -1.52594850       1.26081342      -1.46513796       0.00000000
Si       1.94970937       0.94431501       1.39415032       0.00000000
Si       2.58860317      -2.66706396      -0.06464761       0.00000000
Si       2.52585409      -0.09503586      -2.84342086       0.00000000
Si       2.68850974       2.71646682      -0.04843374       0.00000000
Si      -0.58516842      -2.81913111       2.53414475       0.00000000
Si      -0.18688227       2.61895308      -2.84560350       0.00000000
Si      -1.47424404       0.79055370       3.49325753       0.00000000
