10
Lattice="10.86 0.0 0.0 0.0 10.86 0.0 0.0 0.0 10.86" Properties=species:S:1:pos:R:3:initial_magmoms:R:1 pbc="T T T"
Si       1.35750000       1.35750000       1.35750000       0.00000000
Si      -1.35750000      -1.35750000       1.35750000       0.00000000
Si       1.35750000      -1.35750000      -1.35750000       0.00000000
Si      -1.35750000       1.35750000      -1.35750000       0.00000000
Si      -0.00185706       2.53203072       2.61607626       0.00000000
Si       0.08949726      -2.77936722      -2.44718154       0.00000000
Si      -0.00613590       2.50698756      -2.76607458       0.00000000
Si       0.17800626      -2.63711208       2.67858642       0.00000000
Si       2.57317926       2.76466278       0.14669688       0.00000000
Si      -2.54534508       2.85000066      -0.14472036       0.00000000
