10
Lattice="10.86 0.0 0.0 0.0 10.86 0.0 0.0 0.0 10.86" Properties=species:S:1:pos:R:3:initial_magmoms:R:1 pbc="T T T"
Si       1.43627844       1.15499358       1.51919454       0.00000000
Si       1.43627844      -1.56000642      -1.19580546       0.00000000
Si      -1.27872156      -1.56000642       1.51919454       0.00000000
Si      -0.03377460       2.41789212      -2.26880604       0.00000000
Si      -2.45821530       2.59038150       0.12528096       0.00000000
Si      -0.06304230      -2.86784364      -2.40660858       0.00000000
Si       2.79377844       2.51249358       0.16169454       0.00000000
Si       2.79377844      -0.20250642      -2.55330546       0.00000000
Si       0.07877844       2.51249358       2.87669454       0.00000000
Si      -2.63622156      -0.20250642       2.87669454       0.00000000
