10
Lattice="10.86 0.0 0.0 0.0 10.86 0.0 0.0 0.0 10.86" Properties=species:S:1:pos:R:3:initial_magmoms:R:1 pbc="T T T"
Si       1.47005304       1.45210146       1.07300058       0.00000000
Si      -1.24494696       1.45210146      -1.64199942       0.00000000
Si       1.47005304      -1.26289854      -1.64199942       0.00000000
Si       0.03377460      -2.41789212       2.26880604       0.00000000
Si      -2.42444070       0.17248938       2.39408700       0.00000000
Si      -2.51294970       0.03023424      -2.73168096       0.00000000
Si       0.11255304       2.80960146       2.43050058       0.00000000
Si       2.82755304       0.09460146       2.43050058       0.00000000
Si      -2.60244696       2.80960146      -0.28449942       0.00000000
Si       2.82755304      -2.62039854      -0.28449942       0.00000000
