10
Lattice="10.86 0.0 0.0 0.0 10.86 0.0 0.0 0.0 10.86" Properties=species:S:1:pos:R:3:initial_magmoms:R:1 pbc="T T T"
Si      -1.13677050      -1.37470224       1.53905748       0.00000000
Si       1.57822950      -1.37470224      -1.17594252       0.00000000
Si       1.57822950       1.34029776       1.53905748       0.00000000
Si      -0.00540828       2.59784232      -2.43717948       0.00000000
Si      -2.39106792      -0.00602730      -2.68882740       0.00000000
Si      -2.59322682       0.08221020       2.51580588       0.00000000
Si      -2.49427050      -2.73220224       0.18155748       0.00000000
Si       0.22072950      -2.73220224      -2.53344252       0.00000000
Si       2.93572950      -0.01720224      -2.53344252       0.00000000
Si       0.10882806       2.69023920       2.90158566       0.00000000
