10
Lattice="10.86 0.0 0.0 0.0 10.86 0.0 0.0 0.0 10.86" Properties=species:S:1:pos:R:3:initial_magmoms:R:1 pbc="T T T"
Si      -1.06031610      -1.44442344       1.22311836       0.00000000
Si      -1.06031610       1.27057656      -1.49188164       0.00000000
Si       1.63561374       1.80917826       0.53854740       0.00000000
Si       1.65468390      -1.44442344      -1.49188164       0.00000000
Si       0.15462468       2.46204888       2.46568698       0.00000000
Si      -2.41781610      -0.08692344       2.58061836       0.00000000
Si      -2.41781610       2.62807656      -0.13438164       0.00000000
Si      -2.41781610      -2.80192344      -0.13438164       0.00000000
Si      -2.41781610      -0.08692344      -2.84938164       0.00000000
Si       0.28984254       2.51016954      -2.80321578       0.00000000
