10
Lattice="10.86 0.0 0.0 0.0 10.86 0.0 0.0 0.0 10.86" Properties=species:S:1:pos:R:3:initial_magmoms:R:1 pbc="T T T"
Si      -1.63561374      -1.80917826      -0.53854740       0.00000000
Si      -1.48098906       0.65287062       1.92713958       0.00000000
Si       0.06615912       1.86680142      -1.69813476       0.00000000
Si      -2.69592984      -0.53860170      -2.03042904       0.00000000
Si       1.61549016      -2.14134222       2.18720400       0.00000000
Si      -2.69592984       2.17639830       0.68457096       0.00000000
Si      -1.34577120       0.70099128      -3.34176318       0.00000000
Si      -1.40926962       3.44026338      -0.51919488       0.00000000
Si       0.01907016      -3.25360170      -2.03042904       0.00000000
Si       0.01907016       2.17639830       3.39957096       0.00000000
