10
Lattice="16.290000149 0.0 0.0 0.0 16.290000149 0.0 0.0 0.0 29.1751946751" Properties=species:S:1:pos:R:3:initial_magmoms:R:1 pbc="T T T"
Si      -1.36203949       1.36708939       1.26512397       0.00000000
Si       1.33864705       1.44559090      -1.25535028       0.00000000
Si      -1.41942916      -1.31251789      -1.31195015       0.00000000
Si       1.29876913      -1.30163617       1.45823458       0.00000000
Si      -2.77816179       0.04070871       2.50291078       0.00000000
Si       2.68257206       0.07881102      -2.60438210       0.00000000
Si      -0.04012227      -2.65984751      -2.63268204       0.00000000
Si       2.68183901      -2.65061108       0.12761230       0.00000000
Si      -0.04921209       2.78806611      -2.60099778       0.00000000
Si      -2.78168043       0.08169435      -2.61651898       0.00000000
