10
Lattice="16.290000149 0.0 0.0 0.0 16.290000149 0.0 0.0 0.0 29.1751946751" Properties=species:S:1:pos:R:3:initial_magmoms:R:1 pbc="T T T"
Si       0.43999290      -0.24754284       2.28302171       0.00000000
Si      -1.71506009       1.63287704       0.10578926       0.00000000
Si      -0.05258412      -2.29472345      -0.66510691       0.00000000
Si       1.86849560       0.89406037      -1.27752342       0.00000000
H       -0.91355950       0.16097778      -2.54253069       0.00000000
Si       2.15003567      -2.68105709       0.14018681       0.00000000
Si      -0.32179266       3.37033587      -0.81185814       0.00000000
Si       2.07223463      -1.98343784       2.36817389       0.00000000
Si       3.46139697       1.70675219       0.28545010       0.00000000
Si      -3.77168889       0.62405362      -0.61626764       0.00000000
