10
Lattice="16.290000149 0.0 0.0 0.0 16.290000149 0.0 0.0 0.0 29.1751946751" Properties=species:S:1:pos:R:3:initial_magmoms:R:1 pbc="T T T"
Si      -0.92845996       0.81896021       1.99467888       0.00000000
Si       1.36551415       1.38251276      -1.33018465       0.00000000
Si      -1.87331255      -0.89101251      -1.12350757       0.00000000
Si       1.84181746      -1.17390954       0.93316860       0.00000000
H        2.64781409       1.42221149      -0.51307497       0.00000000
H       -2.92015683       0.22397936      -1.11373388       0.00000000
Si       0.52700920      -2.60101129       2.27986641       0.00000000
Si       1.95982222      -0.13165741      -3.09297909       0.00000000
Si      -0.64354362      -1.00735650       3.56482951       0.00000000
Si       0.40683298       2.79511642       2.48432618       0.00000000
