10
Lattice="16.290000149 0.0 0.0 0.0 16.290000149 0.0 0.0 0.0 29.1751946751" Properties=species:S:1:pos:R:3:initial_magmoms:R:1 pbc="T T T"
Si      -2.19486575       0.72340633       0.46330209       0.00000000
Si      -0.26733519      -2.03141189       1.19629968       0.00000000
Si       1.57429819       1.31255047       1.20753213       0.00000000
Si      -0.28838187       0.88725115      -2.24193866       0.00000000
H        2.24499008      -0.94089412      -1.63564894       0.00000000
H        0.80865190      -1.85741840      -2.18863558       0.00000000
H        1.62575830      -2.55621053      -0.54931057       0.00000000
H        1.04475916      -2.49147407       1.80045961       0.00000000
Si      -2.15324480       2.87110764      -0.51362930       0.00000000
Si      -2.41484591      -0.08057034      -2.92110802       0.00000000
