10
Lattice="16.290000149 0.0 0.0 0.0 16.290000149 0.0 0.0 0.0 29.1751946751" Properties=species:S:1:pos:R:3:initial_magmoms:R:1 pbc="T T T"
Si      -1.34667802      -1.35690814      -1.36253994       0.00000000
Si      -1.37015191       1.36353817       1.33593216       0.00000000
Si       1.35192340       1.37538100      -1.34628936       0.00000000
Si       1.34630335      -1.35909100       1.36857921       0.00000000
Si      -0.00527796       2.71956665       2.68230905       0.00000000
Si      -2.70682787      -2.70128927       0.00994874       0.00000000
Si      -2.69982317       0.01014867      -2.71819454       0.00000000
Si       0.03148857      -2.70586676      -2.71273878       0.00000000
Si       2.77029372       0.04456944      -2.64869922       0.00000000
Si       2.71738379      -2.70495452       0.03048808       0.00000000
