10
Lattice="16.290000149 0.0 0.0 0.0 16.290000149 0.0 0.0 0.0 29.1751946751" Properties=species:S:1:pos:R:3:initial_magmoms:R:1 pbc="T T T"
Si      -1.36865323      -1.34864911      -1.33791608       0.00000000
Si      -1.36506943       1.34728075       1.35031554       0.00000000
Si       1.32494716      -1.38349342       1.36017675       0.00000000
Si       1.38498347       1.33156090      -1.36784983       0.00000000
Si       0.07413579      -2.68108967      -2.61958238       0.00000000
Si       2.69468857      -0.01391166       2.68505152       0.00000000
Si      -0.00619020       2.71249679       2.68155049       0.00000000
Si      -2.69436602       2.71388144      -0.02561582       0.00000000
Si       0.05497875       2.74040156      -2.67901225       0.00000000
Si      -2.72096759      -0.03036456       2.70614518       0.00000000
