10
Lattice="16.290000149 0.0 0.0 0.0 16.290000149 0.0 0.0 0.0 29.1751946751" Properties=species:S:1:pos:R:3:initial_magmoms:R:1 pbc="T T T"
Si      -1.42463056       1.20471067      -1.39285297       0.00000000
Si       1.13785651      -1.42456051      -1.46876683       0.00000000
Si      -1.49214935      -1.19431765       1.39136503       0.00000000
Si       1.49275045       1.34711785       1.30284749       0.00000000
H        0.02756268      -2.66297519       0.76348567       0.00000000
H       -2.63921786      -0.23651451       1.67964513       0.00000000
H        2.04418325      -2.32865552      -0.66601134       0.00000000
Si      -0.20375532      -1.03280230       3.41723220       0.00000000
Si      -0.07187148       2.64789065      -2.68478894       0.00000000
Si      -2.83698498       2.49707783      -0.05817534       0.00000000
