10
Lattice="16.290000149 0.0 0.0 0.0 16.290000149 0.0 0.0 0.0 29.1751946751" Properties=species:S:1:pos:R:3:initial_magmoms:R:1 pbc="T T T"
Si      -1.32944320       1.31458672       1.41921276       0.00000000
Si      -1.42633612      -1.35917245      -1.28033796       0.00000000
Si       1.32991561      -1.39507561       1.36877176       0.00000000
Si       1.33413472       1.36547114      -1.40728594       0.00000000
Si       0.01793529      -2.55350639      -2.63818740       0.00000000
Si       2.63314820       2.64858135       0.09870844       0.00000000
Si      -2.60884352       2.68733037       0.03193225       0.00000000
Si      -2.74089841      -0.07558560       2.67616183       0.00000000
Si       2.66699882      -0.07042167       2.77375286       0.00000000
Si       2.71153568      -2.75235843       0.04512236       0.00000000
