10
Lattice="16.290000149 0.0 0.0 0.0 16.290000149 0.0 0.0 0.0 29.1751946751" Properties=species:S:1:pos:R:3:initial_magmoms:R:1 pbc="T T T"
Si      -0.21975210       2.13745979       0.90904072       0.00000000
Si      -1.81441280      -0.75082240      -1.38532577       0.00000000
Si       0.34034697      -1.95074381       1.37377239       0.00000000
Si       2.12991752       0.57937015      -1.00027155       0.00000000
H        2.21206799      -0.19587096       1.60956632       0.00000000
H       -1.35420400       2.19625040       1.90974989       0.00000000
H        2.81196354      -0.68914846       1.58354204       0.00000000
H       -1.05397930      -1.10473894       2.99915166       0.00000000
Si       1.96188617      -2.74486503      -0.13636486       0.00000000
H        1.05653683      -1.87683608       2.69952241       0.00000000
