10
Lattice="16.290000149 0.0 0.0 0.0 16.290000149 0.0 0.0 0.0 29.1751946751" Properties=species:S:1:pos:R:3:initial_magmoms:R:1 pbc="T T T"
Si       1.38841300       1.43767396      -1.17975735       0.00000000
Si       1.69816736      -1.59988978       0.01228276       0.00000000
Si      -0.95467546       1.27278658       1.75392518       0.00000000
Si      -1.59290137      -0.81269182      -1.56297353       0.00000000
Si      -2.06811326       1.21829653      -2.62168299       0.00000000
Si      -0.17558991       2.72253143      -2.30171863       0.00000000
Si       0.62608987      -3.36121347      -1.04849815       0.00000000
Si      -2.40613076       2.69003288       0.53647348       0.00000000
Si      -0.30358044      -2.32156937      -2.88341366       0.00000000
Si       2.35779833      -2.01834731       2.14262338       0.00000000
