10
Lattice="16.290000149 0.0 0.0 0.0 16.290000149 0.0 0.0 0.0 29.1751946751" Properties=species:S:1:pos:R:3:initial_magmoms:R:1 pbc="T T T"
H       -0.91680121      -0.07468965       1.21027460       0.00000000
Si      -0.89679709       1.41403717      -1.59389924       0.00000000
Si       0.33909264      -2.12242412      -0.93176819       0.00000000
Si       1.88661008       1.34583094       0.38692143       0.00000000
H        0.98288974       0.34528284       2.44811976       0.00000000
H       -2.18903393      -1.82659772       0.78927654       0.00000000
Si       0.25404255       2.86190868       1.46803745       0.00000000
Si      -0.33441741       0.38584494      -3.60567478       0.00000000
Si      -1.72336799      -2.81354367      -1.83596583       0.00000000
Si       1.55711224      -3.44385264       0.58688822       0.00000000
