10
Lattice="16.290000149 0.0 0.0 0.0 16.290000149 0.0 0.0 0.0 29.1751946751" Properties=species:S:1:pos:R:3:initial_magmoms:R:1 pbc="T T T"
Si      -1.29272554      -1.43258676       1.28557578       0.00000000
Si       1.30525255      -1.40531730      -1.33922896       0.00000000
Si      -1.44264241       1.60689921      -0.94014147       0.00000000
Si       1.18773649       1.14707975       1.69411603       0.00000000
Si      -0.80224993       2.04798354       2.66264497       0.00000000
Si      -2.31971231       0.19502861       2.60254407       0.00000000
Si      -0.08778681       2.64600574      -2.56353683       0.00000000
Si       2.63526525       2.56949161       0.36323117       0.00000000
Si       0.23343570      -2.42813383       2.79104500       0.00000000
Si       1.75971098      -0.58651673       3.21831572       0.00000000
