10
Lattice="16.290000149 0.0 0.0 0.0 16.290000149 0.0 0.0 0.0 29.1751946751" Properties=species:S:1:pos:R:3:initial_magmoms:R:1 pbc="T T T"
Si      -1.88661008      -1.34583094      -0.38692143       0.00000000
Si       0.52114968       1.25677351      -1.93139789       0.00000000
H       -0.90372034      -1.00054810       2.06119833       0.00000000
Si       1.93031615      -1.49690440       0.31710519       0.00000000
Si      -1.63256752       1.51607773       1.08111601       0.00000000
H       -2.80341129      -1.42052059       0.82335317       0.00000000
Si       0.17927145       2.84172537       1.68892284       0.00000000
Si      -2.78340717       0.06820623      -1.98082067       0.00000000
Si      -0.02037879      -1.84407689       2.95766454       0.00000000
Si       1.54813645      -0.37084185      -3.24836618       0.00000000
