10
Lattice="16.290000149 0.0 0.0 0.0 16.290000149 0.0 0.0 0.0 29.1751946751" Properties=species:S:1:pos:R:3:initial_magmoms:R:1 pbc="T T T"
H       -0.89015077      -1.39527109      -0.35491624       0.00000000
Si       0.27227106      -0.48008259       2.28686846       0.00000000
Si      -1.84388141       1.46111527       0.10470977       0.00000000
Si       1.53101566       0.80844013      -1.64419727       0.00000000
H        0.42647220       2.17209233       1.17275530       0.00000000
H        1.72878278      -1.92515222       0.09362320       0.00000000
H       -1.18669393      -0.19877058       2.66209064       0.00000000
Si      -1.36811566      -2.12646404      -1.74654385       0.00000000
Si       0.19080477       2.19981791      -2.96682555       0.00000000
Si       2.93115747       2.22718511      -0.44171245       0.00000000
