10
Lattice="16.290000149 0.0 0.0 0.0 16.290000149 0.0 0.0 0.0 29.1751946751" Properties=species:S:1:pos:R:3:initial_magmoms:R:1 pbc="T T T"
Si      -1.35702217       1.40714650      -1.31244613       0.00000000
Si       1.17208180       1.46883673       1.44858051       0.00000000
Si      -1.48926439      -1.19943271       1.43316725       0.00000000
Si       1.00642879      -1.23817033      -1.84346385       0.00000000
Si      -2.46736324      -0.29695041      -2.55776014       0.00000000
Si      -1.05020002      -2.24699375      -2.56552074       0.00000000
Si       2.39969621       0.49928850      -2.76111125       0.00000000
Si      -0.13121595      -2.53941554       2.81334943       0.00000000
Si       2.54470979       0.11665269       2.80956249       0.00000000
Si       2.47041110       2.95246479       0.17304537       0.00000000
