10
Lattice="16.290000149 0.0 0.0 0.0 16.290000149 0.0 0.0 0.0 29.1751946751" Properties=species:S:1:pos:R:3:initial_magmoms:R:1 pbc="T T T"
Si       1.37456650      -1.34601013       1.33677824       0.00000000
Si       1.36477621       1.34744365      -1.34996543       0.00000000
Si      -1.34970796      -1.36994014      -1.35145337       0.00000000
Si      -1.35018037       1.34967538       1.37298466       0.00000000
Si       0.01948284      -2.70078428       2.67101825       0.00000000
Si       0.00228060       2.71321355      -2.68575172       0.00000000
Si      -2.73230544      -0.01076443      -2.67361484       0.00000000
Si      -2.71858925       2.69421941       0.00863586       0.00000000
Si       2.72468171       2.69136866       0.01298296       0.00000000
Si       2.72738585      -0.01477666      -2.69599221       0.00000000
