10
Lattice="16.290000149 0.0 0.0 0.0 16.290000149 0.0 0.0 0.0 29.1751946751" Properties=species:S:1:pos:R:3:initial_magmoms:R:1 pbc="T T T"
Si      -1.31968549      -1.34120458      -1.39426797       0.00000000
Si       1.35624025       1.31486365      -1.39805491       0.00000000
Si      -1.37872045       1.35962857       1.33534866       0.00000000
Si       1.35314515      -1.36705681       1.35565460       0.00000000
Si       2.70031187       2.68413590      -0.03553539       0.00000000
Si      -2.69372094      -2.70195716      -0.03255952       0.00000000
Si      -0.01830996       2.71406063       2.68852336       0.00000000
Si       0.09959706      -2.72305271      -2.67798820       0.00000000
Si       2.69982317      -0.01014867       2.71819454       0.00000000
Si      -0.01638774       2.66704769      -2.75903689       0.00000000
