10
Lattice="16.290000149 0.0 0.0 0.0 16.290000149 0.0 0.0 0.0 29.1751946751" Properties=species:S:1:pos:R:3:initial_magmoms:R:1 pbc="T T T"
Si       1.35995926       1.34998489      -1.35393326       0.00000000
Si       1.37025454      -1.34249149       1.35702583       0.00000000
Si      -1.33828234       1.36352188       1.37234281       0.00000000
Si      -1.34768312      -1.37862271      -1.35171594       0.00000000
Si      -2.68729128      -0.04639392       2.67624061       0.00000000
Si       2.66863271      -2.69995349      -0.06135543       0.00000000
Si      -0.02891964       2.69894351      -2.68432214       0.00000000
Si      -2.69087508      -0.02112813      -2.72093701       0.00000000
Si       2.67808091      -0.01272249      -2.74477314       0.00000000
Si       2.72696720       0.03945438       2.70734136       0.00000000
