10
Lattice="16.290000149 0.0 0.0 0.0 16.290000149 0.0 0.0 0.0 29.1751946751" Properties=species:S:1:pos:R:3:initial_magmoms:R:1 pbc="T T T"
Si       1.34618932      -1.34465806       1.36557416       0.00000000
Si      -1.35397594       1.32963868       1.40093450       0.00000000
Si      -1.42221475      -1.46010529      -1.22471340       0.00000000
Si       1.46046367       1.43724537      -1.21442915       0.00000000
Si      -0.99489547       0.92497879      -3.41945535       0.00000000
Si       0.04368978       2.78046845      -2.46908797       0.00000000
Si      -2.82844902      -0.09544311      -2.47795140       0.00000000
Si       2.68959305      -2.64761372      -0.05875884       0.00000000
Si      -0.08475687      -2.61496856      -2.78195984       0.00000000
Si      -0.00938304      -2.71507061       2.71189270       0.00000000
