10
Lattice="16.290000149 0.0 0.0 0.0 16.290000149 0.0 0.0 0.0 29.1751946751" Properties=species:S:1:pos:R:3:initial_magmoms:R:1 pbc="T T T"
Si       1.34760655       1.36205578       1.35049059       0.00000000
Si      -1.34302092       1.35801586      -1.36335685       0.00000000
Si       1.35956341      -1.35542575      -1.35375821       0.00000000
Si      -1.36816779      -1.36448299       1.34442215       0.00000000
Si      -0.03303612      -2.69887835      -2.68289255       0.00000000
Si       2.69118947      -0.02132361       2.69281212       0.00000000
Si      -2.67787289      -0.01901043      -2.70847920       0.00000000
Si      -0.04062726       2.71308323       2.68426379       0.00000000
Si       2.69623937       2.70940169      -0.02777479       0.00000000
Si       2.68947902      -2.72559395       0.01840955       0.00000000
