10
Lattice="16.290000149 0.0 0.0 0.0 16.290000149 0.0 0.0 0.0 29.1751946751" Properties=species:S:1:pos:R:3:initial_magmoms:R:1 pbc="T T T"
Si      -1.42711804       1.21661866      -1.37391827       0.00000000
Si      -1.30548061      -1.48092391       1.26465716       0.00000000
Si       1.49776777      -1.34042266      -1.24756050       0.00000000
Si       0.65640556       1.87475096       1.29922977       0.00000000
Si       0.03587058       2.60047046      -2.59075729       0.00000000
Si       0.23739417      -2.57295665       2.63790440       0.00000000
Si      -2.76778506       2.52250652       0.04612598       0.00000000
Si       0.05949108      -2.74885608      -2.56444126       0.00000000
Si      -2.71870328      -0.18911061      -2.69465016       0.00000000
Si      -0.99818605       3.52600311       1.20406028       0.00000000
