10
Lattice="16.290000149 0.0 0.0 0.0 16.290000149 0.0 0.0 0.0 29.1751946751" Properties=species:S:1:pos:R:3:initial_magmoms:R:1 pbc="T T T"
Si      -1.41343444      -1.29477808      -1.34424855       0.00000000
Si      -1.38162007       1.35728281       1.32364941       0.00000000
Si       1.32142852       1.40320432      -1.34126627       0.00000000
Si       1.37163430      -1.41159367       1.30369649       0.00000000
Si       2.62591544       2.58839957       0.21041734       0.00000000
Si       2.66216069       0.04833243      -2.68608140       0.00000000
Si      -0.10709046      -2.72150516      -2.64462345       0.00000000
Si      -2.73481409      -0.04017114       2.64405162       0.00000000
Si      -2.69360039       0.19885203      -2.68330976       0.00000000
Si      -0.04453686       2.68193675       2.72863050       0.00000000
