10
Lattice="16.290000149 0.0 0.0 0.0 16.290000149 0.0 0.0 0.0 29.1751946751" Properties=species:S:1:pos:R:3:initial_magmoms:R:1 pbc="T T T"
Si       0.96796810      -1.45358929      -1.51346322       0.00000000
Si      -1.68746483       0.92805760      -1.31416747       0.00000000
Si      -1.26257275      -1.48608784       1.32472889       0.00000000
Si       1.50667840       1.28374975       1.28327094       0.00000000
H       -1.15372297       1.18499977      -2.70025179       0.00000000
Si      -0.92455525      -2.95782420      -1.83342758       0.00000000
Si      -2.63963162      -2.51253704      -0.30905284       0.00000000
Si      -2.56891673      -0.05936076       2.62510379       0.00000000
H        0.11850975       2.93690784      -2.27925373       0.00000000
Si       0.16594623       2.63862164       2.62808607       0.00000000
