10
Lattice="16.290000149 0.0 0.0 0.0 16.290000149 0.0 0.0 0.0 29.1751946751" Properties=species:S:1:pos:R:3:initial_magmoms:R:1 pbc="T T T"
Si      -0.95234599       1.87362695      -0.88155768       0.00000000
Si      -1.77305249      -1.47297439       0.33356000       0.00000000
Si       0.38918439       0.65464624       2.22099087       0.00000000
Si       1.69332923      -1.02555325      -1.30693202       0.00000000
H       -0.35245044      -1.19441539      -2.57001372       0.00000000
Si       1.87802525      -1.21308373       2.57345640       0.00000000
Si       2.51460587      -2.26494533       0.51543816       0.00000000
Si      -2.44154522       0.87104260      -2.35992315       0.00000000
Si      -1.06634341      -3.51772616      -0.43290154       0.00000000
Si      -3.58063977      -0.57000340      -0.82031895       0.00000000
