10
Lattice="16.290000149 0.0 0.0 0.0 16.290000149 0.0 0.0 0.0 29.1751946751" Properties=species:S:1:pos:R:3:initial_magmoms:R:1 pbc="T T T"
Si       1.38162007      -1.35728281      -1.32364941       0.00000000
Si       1.33708321       1.32465394       1.40498110       0.00000000
Si      -1.35319402      -1.39745395       1.32040221       0.00000000
Si      -1.32991561       1.39507561      -1.36877176       0.00000000
Si      -0.03181437      -2.65206089      -2.66789796       0.00000000
Si       2.70304859       0.04592151      -2.66491567       0.00000000
Si      -2.65935881       2.70966233       0.05044099       0.00000000
Si      -2.70479162      -0.02826315       2.67906185       0.00000000
Si      -2.75625174       0.03590316      -2.64910972       0.00000000
Si       2.68705181       2.71990676       0.09497401       0.00000000
