10
Lattice="16.290000149 0.0 0.0 0.0 16.290000149 0.0 0.0 0.0 29.1751946751" Properties=species:S:1:pos:R:3:initial_magmoms:R:1 pbc="T T T"
Si       1.34236606       1.36140418       1.35404996       0.00000000
Si      -1.33595920       1.37512036      -1.35399161       0.00000000
Si       1.36491956      -1.35128809      -1.35049059       0.00000000
Si      -1.35433432      -1.34804638       1.37324724       0.00000000
Si      -2.69483843       0.00990432      -2.68522657       0.00000000
Si       2.67509495       0.00239463       2.71647320       0.00000000
Si      -0.00482184      -2.72086985      -2.67536535       0.00000000
Si       2.69332346      -2.71264340       0.02284418       0.00000000
Si      -2.68306076       2.72310158       0.01231193       0.00000000
Si       2.69246009       2.72627813      -0.01064895       0.00000000
