10
Lattice="16.290000149 0.0 0.0 0.0 16.290000149 0.0 0.0 0.0 29.1751946751" Properties=species:S:1:pos:R:3:initial_magmoms:R:1 pbc="T T T"
Si       1.34690608       1.33332022       1.38831039       0.00000000
Si       1.32976900      -1.43975908      -1.31491144       0.00000000
Si      -1.34128603      -1.41822370       1.35998128       0.00000000
Si      -1.42744384       1.36596538      -1.33489061       0.00000000
H        0.49036158       1.65089378      -3.21197595       0.00000000
Si      -2.76490173       2.52082865       0.22235583       0.00000000
Si       2.64997577       2.68762196      -0.04564751       0.00000000
Si      -0.06708222      -2.76128535      -2.67894515       0.00000000
Si      -2.73584037      -0.08083098      -2.70552375       0.00000000
Si       2.69527826      -0.05136237       2.75041270       0.00000000
