10
Lattice="16.290000149 0.0 0.0 0.0 16.290000149 0.0 0.0 0.0 29.1751946751" Properties=species:S:1:pos:R:3:initial_magmoms:R:1 pbc="T T T"
H        0.84652615       0.93590938       0.80538125       0.00000000
Si       1.42895881      -1.43685946      -1.12954684       0.00000000
Si      -1.29534823       1.29336085      -1.42617104       0.00000000
Si      -1.82596241      -0.83025244       1.16980861       0.00000000
H        1.66363256       0.23711724       2.44470626       0.00000000
H        2.28286433       1.85243366       1.35836789       0.00000000
Si      -2.37697166       2.71275743       0.07290881       0.00000000
Si       2.78158269      -0.04898403      -2.47084724       0.00000000
Si       0.06959088      -2.75328696      -2.51151746       0.00000000
Si       0.12077406       2.61974153      -2.66395785       0.00000000
