10
Lattice="16.290000149 0.0 0.0 0.0 16.290000149 0.0 0.0 0.0 29.1751946751" Properties=species:S:1:pos:R:3:initial_magmoms:R:1 pbc="T T T"
Si       1.34394130      -1.33082785      -1.38675535       0.00000000
Si      -1.36293544       1.33962445      -1.36391118       0.00000000
Si      -1.35185824      -1.39105198       1.32738383       0.00000000
Si       1.37083609       1.34760655       1.35568377       0.00000000
Si      -2.73116513      -0.04372236       2.64811572       0.00000000
Si       2.68920209      -2.71147052      -0.03197601       0.00000000
Si      -2.69821046      -0.06481791      -2.70241076       0.00000000
Si      -2.71806797       2.69296508       0.00166299       0.00000000
Si       0.02691108       2.71438643       2.70471560       0.00000000
Si       2.71859888       2.70125669      -0.00183804       0.00000000
