10
Lattice="16.290000149 0.0 0.0 0.0 16.290000149 0.0 0.0 0.0 29.1751946751" Properties=species:S:1:pos:R:3:initial_magmoms:R:1 pbc="T T T"
Si      -1.36679617       1.35729910      -1.32802569       0.00000000
Si       1.34861653       1.36200691       1.34780647       0.00000000
Si      -1.37624437      -1.32993190       1.35539202       0.00000000
Si       1.37466424      -1.36389655      -1.33321887       0.00000000
Si       2.66893733      -0.07887618       2.62293753       0.00000000
Si       0.00188964       2.70099605      -2.67072650       0.00000000
Si       0.00979029      -2.71992503      -2.67959575       0.00000000
Si      -2.70664868      -0.00547344      -2.69345397       0.00000000
Si      -2.68491782       2.72000648       0.06281419       0.00000000
Si      -0.06517629      -2.75691963       2.65155839       0.00000000
