10
Lattice="16.290000149 0.0 0.0 0.0 16.290000149 0.0 0.0 0.0 29.1751946751" Properties=species:S:1:pos:R:3:initial_magmoms:R:1 pbc="T T T"
Si      -1.43379694       1.32186835       1.28239568       0.00000000
Si      -1.37710774      -1.33973848      -1.33246032       0.00000000
Si       1.34951248       1.35830908      -1.35229945       0.00000000
Si       1.35571897      -1.33511212       1.37721506       0.00000000
Si      -0.00922014       2.71153568       2.46256148       0.00000000
Si       0.00190593      -2.70637175      -2.64309759       0.00000000
Si       2.72881938       0.01097946      -2.67303134       0.00000000
Si      -2.72807003       0.03684798      -2.67376072       0.00000000
Si      -0.01273878       2.75252133      -2.65686828       0.00000000
Si       0.00891063      -2.66738978       2.74567757       0.00000000
