10
Lattice="16.290000149 0.0 0.0 0.0 16.290000149 0.0 0.0 0.0 29.1751946751" Properties=species:S:1:pos:R:3:initial_magmoms:R:1 pbc="T T T"
Si      -1.33272890       1.35900955      -1.36242324       0.00000000
Si       1.30987891       1.42983847       1.32504982       0.00000000
Si      -1.34187573      -1.36992385       1.35909727       0.00000000
Si       1.37497375      -1.34736220      -1.35705501       0.00000000
Si       2.66735720       0.07387515       2.62956030       0.00000000
Si      -2.65370618       2.69386103       0.04554248       0.00000000
Si       2.67926519       2.68320737      -0.10800657       0.00000000
Si      -2.61023257      -0.00524538       2.77753688       0.00000000
Si      -2.67509495      -0.00239463      -2.71647320       0.00000000
Si       0.01822851      -2.71503803      -2.69362902       0.00000000
