10
Lattice="16.290000149 0.0 0.0 0.0 16.290000149 0.0 0.0 0.0 29.1751946751" Properties=species:S:1:pos:R:3:initial_magmoms:R:1 pbc="T T T"
Si      -1.30857571      -1.28943496       1.47040647       0.00000000
Si      -1.34861653       1.36215352      -1.37654404       0.00000000
Si       1.43042491      -1.37225332      -1.28531612       0.00000000
Si       1.37244880       1.40628313       1.31186846       0.00000000
Si      -2.62000217      -2.64971513       0.12474730       0.00000000
Si       2.64665261       0.06322149      -2.72705796       0.00000000
Si       2.74636371      -2.63484236       0.18776280       0.00000000
Si      -2.71168229       2.71000442       0.01428418       0.00000000
Si       2.71217099       0.07022619       2.73366323       0.00000000
Si      -2.73895176      -0.01715337      -2.71658407       0.00000000
