10
Lattice="16.290000149 0.0 0.0 0.0 16.290000149 0.0 0.0 0.0 29.1751946751" Properties=species:S:1:pos:R:3:initial_magmoms:R:1 pbc="T T T"
Si       1.31593879      -1.26258904       1.47307892       0.00000000
Si      -0.85690288      -1.93603394      -1.04256975       0.00000000
Si      -1.43042491       1.37225332       1.28531612       0.00000000
Si       1.21622770       1.43547481      -1.44174184       0.00000000
Si       2.57448791      -2.66501144       0.11053022       0.00000000
Si       2.61307892       2.75700108      -0.07770813       0.00000000
Si      -0.05797611       2.77853646       2.59718458       0.00000000
Si       2.75413404       0.16035876      -2.63629101       0.00000000
Si      -0.09457974      -2.66708027       2.73069027       0.00000000
Si      -1.51653385      -1.51757641      -3.17291037       0.00000000
