10
Lattice="16.290000149 0.0 0.0 0.0 16.290000149 0.0 0.0 0.0 29.1751946751" Properties=species:S:1:pos:R:3:initial_magmoms:R:1 pbc="T T T"
Si      -1.37901367       1.36663327       1.31063727       0.00000000
Si      -1.37839465      -1.33543792      -1.34439297       0.00000000
Si       1.35654976       1.35562123      -1.35720088       0.00000000
Si       1.35456238      -1.35161389       1.36898766       0.00000000
Si      -0.00190593       2.70637175       2.64309759       0.00000000
Si      -0.00731421      -2.68130144      -2.68248410       0.00000000
Si      -2.73372266       0.01578501       2.67154340       0.00000000
Si       2.71508690      -2.70314633       0.01625058       0.00000000
Si       0.00068418       2.72591975      -2.69605056       0.00000000
Si      -2.72818406      -2.70029558       0.01190348       0.00000000
