10
Lattice="16.290000149 0.0 0.0 0.0 16.290000149 0.0 0.0 0.0 29.1751946751" Properties=species:S:1:pos:R:3:initial_magmoms:R:1 pbc="T T T"
Si      -1.34239375      -1.32603859      -1.40636108       0.00000000
Si      -1.38098476       1.36423864       1.34115452       0.00000000
Si       1.35694072       1.34698753      -1.39008133       0.00000000
Si       1.40041433      -1.35211888       1.34191308       0.00000000
Si      -2.68239287      -2.67257000      -0.03308467       0.00000000
Si       2.66877118      -2.71679735      -0.07652654       0.00000000
Si       0.01655064       2.72468171       2.66707960       0.00000000
Si      -2.71709057       2.67382433      -0.09546124       0.00000000
Si       2.76911595       0.04093677       2.65503024       0.00000000
Si      -2.76960954       0.01009980       2.67802029       0.00000000
