10
Lattice="16.290000149 0.0 0.0 0.0 16.290000149 0.0 0.0 0.0 29.1751946751" Properties=species:S:1:pos:R:3:initial_magmoms:R:1 pbc="T T T"
Si       0.05852997       1.07634547       1.05981812       0.00000000
H        1.13059769       1.80678908      -1.94286374       0.00000000
H       -1.23691600      -2.15761541       1.70969558       0.00000000
Si      -2.46733229      -1.38579031      -1.05768833       0.00000000
Si      -1.57576429       0.39824163       2.60741632       0.00000000
Si      -0.47734587      -2.28669411      -2.02621727       0.00000000
Si       2.25929107       1.25740882       1.71331331       0.00000000
Si      -0.32591403       3.25185870       0.25038152       0.00000000
Si      -3.10391292      -0.33392871       1.00032990       0.00000000
Si       2.27766619       0.84898594      -2.23114384       0.00000000
