10
Lattice="16.290000149 0.0 0.0 0.0 16.290000149 0.0 0.0 0.0 29.1751946751" Properties=species:S:1:pos:R:3:initial_magmoms:R:1 pbc="T T T"
Si      -1.36334269      -1.35013150       1.34970286       0.00000000
Si      -1.38971620       1.34838196      -1.33304382       0.00000000
Si       1.32019048      -1.36840888      -1.38357526       0.00000000
Si       1.36117612       1.34277983       1.37782774       0.00000000
Si      -0.06374277       2.70513371       2.67656153       0.00000000
Si       0.00987174      -2.70197345       2.69529201       0.00000000
Si       2.68972337      -2.71000442      -0.03019633       0.00000000
Si      -0.04515588       2.70353729      -2.69850128       0.00000000
Si       2.69667920       2.70650207       0.00860668       0.00000000
Si       2.69715161      -0.01311345      -2.71583135       0.00000000
