10
Lattice="16.290000149 0.0 0.0 0.0 16.290000149 0.0 0.0 0.0 29.1751946751" Properties=species:S:1:pos:R:3:initial_magmoms:R:1 pbc="T T T"
Si       1.34996860       1.39525282      -1.31000709       0.00000000
Si      -1.32396976       1.35192340       1.38430464       0.00000000
Si      -1.33708321      -1.32465394      -1.40498110       0.00000000
Si       1.38482920      -1.35658234       1.33940401       0.00000000
Si       2.67045230      -0.09353718      -2.51821317       0.00000000
Si       0.02088378      -2.71795394       2.66883011       0.00000000
Si       2.71094924       2.67823567       0.09916649       0.00000000
Si      -0.03385062       2.71900302      -2.67504442       0.00000000
Si      -2.71120988      -0.00731421       2.68858171       0.00000000
Si      -2.69501762       2.71230457       0.07107077       0.00000000
