10
Lattice="16.290000149 0.0 0.0 0.0 16.290000149 0.0 0.0 0.0 29.1751946751" Properties=species:S:1:pos:R:3:initial_magmoms:R:1 pbc="T T T"
Si       1.33999912       1.34653141      -1.37327641       0.00000000
Si      -1.40774923       1.35140212       1.30378110       0.00000000
Si      -1.40002777      -1.37277460      -1.31276706       0.00000000
Si       1.35345466      -1.32227560       1.41960662       0.00000000
Si       2.58282839      -2.74612913       0.00367607       0.00000000
Si       2.68239287       2.67257000       0.03308467       0.00000000
Si      -2.89140987      -0.01420488       2.48190464       0.00000000
Si      -0.08721666       2.68266980       2.71110497       0.00000000
Si       2.66361050      -0.02474451      -2.74576510       0.00000000
Si      -0.01941768       2.67146228      -2.76446640       0.00000000
