10
Lattice="16.290000149 0.0 0.0 0.0 16.290000149 0.0 0.0 0.0 29.1751946751" Properties=species:S:1:pos:R:3:initial_magmoms:R:1 pbc="T T T"
H        1.35725023       0.57637279       0.27424683       0.00000000
Si      -0.46819089       0.42169923      -2.21197573       0.00000000
Si      -1.36317979       1.34832331       1.32814239       0.00000000
Si      -0.45194976      -2.20931498       0.60818611       0.00000000
H        2.27657639      -1.19920465      -0.17691838       0.00000000
H        2.94536235      -0.27104931       1.44761481       0.00000000
Si       0.61481719      -2.12389022       2.71294300       0.00000000
Si       1.35837424       1.71553250      -2.84892858       0.00000000
Si      -2.75954557      -2.02110032       1.20108441       0.00000000
Si       0.17335818       2.66261681       2.51913218       0.00000000
