10
Lattice="16.290000149 0.0 0.0 0.0 16.290000149 0.0 0.0 0.0 29.1751946751" Properties=species:S:1:pos:R:3:initial_magmoms:R:1 pbc="T T T"
Si       1.34657605       1.21111020       1.48411881       0.00000000
Si       1.17055282      -1.59365479      -1.28496310       0.00000000
Si      -1.47649727      -1.30787931       1.37446968       0.00000000
Si      -0.28491634       1.82631671      -1.57015063       0.00000000
Si       2.48536109      -0.16655303      -2.63166091       0.00000000
Si       2.68287734       2.61794556       0.13298025       0.00000000
Si       0.64354362       1.00735650      -3.56482951       0.00000000
Si      -0.08424111       2.51805528       2.83757068       0.00000000
Si       2.52908345      -2.83539263       0.17184861       0.00000000
Si       2.62597637      -0.16163345       2.87139932       0.00000000
