10
Lattice="16.290000149 0.0 0.0 0.0 16.290000149 0.0 0.0 0.0 29.1751946751" Properties=species:S:1:pos:R:3:initial_magmoms:R:1 pbc="T T T"
Si       1.36861399      -1.35674524       1.34060020       0.00000000
Si       1.39852274       1.33475374      -1.33421083       0.00000000
Si      -1.35065278       1.36161595       1.35944737       0.00000000
Si      -1.35734797      -1.34796493      -1.36779148       0.00000000
Si       0.08143371       2.76972357      -2.60972116       0.00000000
Si       2.69885066      -2.70585047      -0.05085236       0.00000000
Si       0.02085120      -2.71039538       2.69812200       0.00000000
Si      -2.71093295      -0.00114030       2.70150633       0.00000000
Si       2.68280664       0.00967626       2.73473687       0.00000000
Si      -2.71096553       2.71430336       0.00703122       0.00000000
