10
Lattice="16.290000149 0.0 0.0 0.0 16.290000149 0.0 0.0 0.0 29.1751946751" Properties=species:S:1:pos:R:3:initial_magmoms:R:1 pbc="T T T"
Si       1.35542575      -1.39541444      -1.28963113       0.00000000
Si       1.39259953       1.34345260       1.32913434       0.00000000
Si      -1.32467023      -1.38346410       1.36175221       0.00000000
Si      -1.29411671       1.35293338      -1.43156845       0.00000000
Si      -2.64483677       2.67986792      -0.02558665       0.00000000
Si       2.70192458      -0.06499710      -2.63539534       0.00000000
Si       0.03303612       2.69887835       2.68289255       0.00000000
Si      -2.65621613      -0.04302189      -2.74907065       0.00000000
Si      -2.70487307      -0.03518640       2.70243993       0.00000000
Si      -2.63859542      -2.76775248      -0.00180886       0.00000000
