10
Lattice="16.290000149 0.0 0.0 0.0 16.290000149 0.0 0.0 0.0 29.1751946751" Properties=species:S:1:pos:R:3:initial_magmoms:R:1 pbc="T T T"
Si       1.34536179       1.46152252      -1.23420030       0.00000000
Si       1.38567954      -1.33941268       1.37228154       0.00000000
Si      -1.35973934       1.45886725       1.28691200       0.00000000
Si      -1.21968167      -1.48975309      -1.39860923       0.00000000
Si      -2.67994612      -2.66851379       0.01764808       0.00000000
Si      -2.66280904       0.10456551       2.72086990       0.00000000
Si      -0.01316884       2.70326036      -2.69101201       0.00000000
Si       2.78963320       0.26718858      -2.59204975       0.00000000
Si       0.03982091      -2.66883959       2.75307932       0.00000000
Si       0.03079950       2.74510938       2.72229949       0.00000000
