10
Lattice="16.290000149 0.0 0.0 0.0 16.290000149 0.0 0.0 0.0 29.1751946751" Properties=species:S:1:pos:R:3:initial_magmoms:R:1 pbc="T T T"
Si       1.32032080      -1.44088309       1.27513106       0.00000000
Si      -1.34861653      -1.36200691      -1.34780647       0.00000000
Si       1.38929266       1.35953083      -1.31291294       0.00000000
Si      -1.29055897       1.36756180       1.41257540       0.00000000
Si       2.74489761      -0.05121576       2.45529686       0.00000000
Si       0.01975977       2.70112637      -2.66629187       0.00000000
Si      -2.66377340       2.71940375       0.06698625       0.00000000
Si      -2.71541270      -0.00470781      -2.67583215       0.00000000
Si      -0.06367761      -2.77562055       2.61584795       0.00000000
Si       2.74137897      -0.01023012      -2.66413290       0.00000000
