10
Lattice="16.290000149 0.0 0.0 0.0 16.290000149 0.0 0.0 0.0 29.1751946751" Properties=species:S:1:pos:R:3:initial_magmoms:R:1 pbc="T T T"
Si       0.89811658      -0.74109727      -0.98101592       0.00000000
Si      -1.08258454       1.71240482       0.78703910       0.00000000
Si      -1.91780543      -0.28492839       1.87708535       0.00000000
Si      -1.33253830       2.22415517      -1.51153766       0.00000000
Si       2.29967186      -1.91189216       0.48080721       0.00000000
Si      -0.69514318      -1.87079249      -2.31881530       0.00000000
Si       2.04802769       0.89964784      -2.16433264       0.00000000
Si       0.85913461       2.56689677       1.84783721       0.00000000
Si      -0.49036158      -1.65089378       3.21197595       0.00000000
Si      -3.22620195      -1.73172476       0.50645220       0.00000000
