10
Lattice="16.290000149 0.0 0.0 0.0 16.290000149 0.0 0.0 0.0 29.1751946751" Properties=species:S:1:pos:R:3:initial_magmoms:R:1 pbc="T T T"
Si       1.35083197       1.38631159       1.32294920       0.00000000
Si      -1.33826261       1.35907471      -1.36344437       0.00000000
Si       1.38823381      -1.35102745      -1.33377320       0.00000000
Si      -1.35009404      -1.36487395       1.36469891       0.00000000
Si       2.66190005      -0.04067613       2.61911558       0.00000000
Si      -2.66548385       2.70764237       0.03258869       0.00000000
Si       0.04062726      -2.71308323      -2.68426379       0.00000000
Si      -2.69030981       0.00605988      -2.72429215       0.00000000
Si      -2.69246009      -2.72627813       0.01064895       0.00000000
Si       0.02042766       2.71077005      -2.72589679       0.00000000
