10
Lattice="10.86 0.0 0.0 0.0 10.86 0.0 0.0 0.0 10.86" Properties=species:S:1:pos:R:3:initial_magmoms:R:1 pbc="T T T"
Si       1.41535122       0.87622824      -1.57702404       0.00000000
Si      -0.59166366      -1.42568994      -1.81408698       0.00000000
Si       1.82606556      -1.50193800       0.49229466       0.00000000
Si      -1.82782488      -0.07233846       1.85672334       0.00000000
Si      -1.76363142       1.93297140      -0.57740448       0.00000000
Si       0.54621456      -2.83082190       2.00107446       0.00000000
Si      -2.16878544      -2.83082190      -0.71392554       0.00000000
Si      -0.75941808      -1.50950742       3.31945674       0.00000000
Si       1.52087784       1.42125906       3.19882386       0.00000000
Si       3.26121456      -0.11582190       2.00107446       0.00000000
