10
Lattice="16.28999089631971 0.0 0.0 0.0 16.28999089631971 0.0 0.0 0.0 34.61538196595647" Properties=species:S:1:pos:R:3:initial_magmoms:R:1 pbc="T T T"
Si      -1.54652440      -1.60682931       0.61411183       0.00000000
Si      -0.88640080       2.03454674      -0.72027727       0.00000000
Si       1.10238340       0.17013276       2.12985103       0.00000000
Si       0.95857528      -0.61519185      -2.16090104       0.00000000
Si       1.18510402       3.09548186      -1.12960439       0.00000000
Si       2.72488369      -1.50180768       1.78882009       0.00000000
Si       2.25472171       1.34334575      -2.45513195       0.00000000
Si      -0.15398937      -3.60904950       0.44591560       0.00000000
Si      -2.18404984      -0.99026910       2.82181290       0.00000000
Si      -3.41019814      -1.37580453      -0.84008117       0.00000000
