10
Lattice="16.28999089631971 0.0 0.0 0.0 16.28999089631971 0.0 0.0 0.0 34.61538196595647" Properties=species:S:1:pos:R:3:initial_magmoms:R:1 pbc="T T T"
Si      -0.45827028      -2.23173000       0.62020415       0.00000000
Si       0.99922860       0.23809464      -2.15778566       0.00000000
Si       2.00564109       0.52233885       1.27710062       0.00000000
Si      -2.06695665       1.31969430      -0.06988850       0.00000000
Si       1.62052920      -3.17953107      -0.50919255       0.00000000
Si       0.19378584       2.36602706      -2.81610136       0.00000000
Si       1.16020638       1.16965688       3.38268490       0.00000000
Si      -2.02696470       2.43361916      -2.10219332       0.00000000
Si       2.73761595       2.69015408       0.49271562       0.00000000
Si       3.39244137      -0.13488120      -1.87715860       0.00000000
