10
Lattice="16.28999089631971 0.0 0.0 0.0 16.28999089631971 0.0 0.0 0.0 34.61538196595647" Properties=species:S:1:pos:R:3:initial_magmoms:R:1 pbc="T T T"
Si      -1.84523346      -0.87987407      -1.27800062       0.00000000
Si       0.84147624       1.83223893      -1.39558913       0.00000000
Si      -0.45729288       0.98594085       2.21614722       0.00000000
Si       1.90110816      -1.58049068       0.06632311       0.00000000
Si      -0.37828638      -2.10455627      -2.79000135       0.00000000
Si       2.35098909       0.61384955      -2.78688596       0.00000000
Si       1.44880002       2.39774628       2.43228579       0.00000000
Si       0.89441874      -3.40006739      -1.30995063       0.00000000
Si       1.36438524       3.48412638       0.36567710       0.00000000
Si      -2.91714641      -2.50509479       0.11191159       0.00000000
