10
Lattice="16.28999089631971 0.0 0.0 0.0 16.28999089631971 0.0 0.0 0.0 34.61538196595647" Properties=species:S:1:pos:R:3:initial_magmoms:R:1 pbc="T T T"
Si      -1.22381883       1.48432851      -1.38395836       0.00000000
Si       1.50951285      -1.21838937      -1.39129682       0.00000000
Si      -0.84147624      -1.83223893       1.39558913       0.00000000
Si       0.52290900       1.65188745       1.76126623       0.00000000
Si       2.84848569       1.57203387       1.75458546       0.00000000
Si       2.83815783      -2.43189419       0.11464621       0.00000000
Si      -2.56034817       0.12994533      -2.75372441       0.00000000
Si       0.15139926      -2.58692435      -2.75434748       0.00000000
Si      -2.68670970      -2.71211300       0.11758852       0.00000000
Si      -2.56096719       2.86488972       0.11526929       0.00000000
