10
Lattice="16.28999089631971 0.0 0.0 0.0 16.28999089631971 0.0 0.0 0.0 34.61538196595647" Properties=species:S:1:pos:R:3:initial_magmoms:R:1 pbc="T T T"
Si      -2.07570438       0.50886539      -0.97864663       0.00000000
Si       0.51958584       2.27861099       0.27650783       0.00000000
Si       1.73332116      -0.50942577      -1.56589691       0.00000000
Si      -0.25557381      -1.94213520       1.37738143       0.00000000
Si      -1.59278733      -3.04855200      -0.29945784       0.00000000
Si      -3.37185081      -1.44967221      -0.68441571       0.00000000
Si       2.50414767       1.49067998      -2.47105504       0.00000000
Si       2.73673629       2.67248690      -0.34054632       0.00000000
Si      -1.56809169       1.12597946      -3.32795930       0.00000000
Si       3.70244007      -1.13297832      -0.35269632       0.00000000
