10
Lattice="16.28999089631971 0.0 0.0 0.0 16.28999089631971 0.0 0.0 0.0 34.61538196595647" Properties=species:S:1:pos:R:3:initial_magmoms:R:1 pbc="T T T"
Si       0.53085852       1.55374020      -1.65357772       0.00000000
Si      -2.29957785       0.32928606       0.26425397       0.00000000
Si       0.62452602       1.03255794       2.06397792       0.00000000
Si       0.49340781      -2.29562068      -0.49043101       0.00000000
Si      -2.50092225      -0.87836169       2.31431650       0.00000000
Si       0.96498702       3.35777625       1.43781992       0.00000000
Si       0.13851387       3.72351933      -0.82654655       0.00000000
Si      -1.13244822       0.49300056       3.66237869       0.00000000
Si      -1.00137888       1.50188913      -3.45721321       0.00000000
Si       1.80698454      -3.36496733       1.15397363       0.00000000
