10
Lattice="16.28999089631971 0.0 0.0 0.0 16.28999089631971 0.0 0.0 0.0 34.61538196595647" Properties=species:S:1:pos:R:3:initial_magmoms:R:1 pbc="T T T"
Si       1.34703639      -1.24662483      -1.49604303       0.00000000
Si       1.85772789       0.96259239       1.11603515       0.00000000
Si      -1.04532930      -1.63168785       1.42916607       0.00000000
Si      -1.35273789       1.47178521      -1.48011994       0.00000000
Si      -1.02511341       2.20589406       2.51307814       0.00000000
Si      -2.71728603      -2.57551416       0.00567693       0.00000000
Si       2.90913336      -2.37286656      -0.12111929       0.00000000
Si       1.12707252       1.48770054       3.27479004       0.00000000
Si       0.00122175      -2.60273475      -2.86477061       0.00000000
Si       2.68102449       2.84990292      -0.10779236       0.00000000
