10
Lattice="16.28999089631971 0.0 0.0 0.0 16.28999089631971 0.0 0.0 0.0 34.61538196595647" Properties=species:S:1:pos:R:3:initial_magmoms:R:1 pbc="T T T"
Si      -0.93247218      -0.11591964       2.15051642       0.00000000
Si      -0.59984667       2.25212508      -0.49420408       0.00000000
Si      -1.52384805      -1.77310134      -0.48198485       0.00000000
Si       2.51320491      -0.88016499      -0.14123084       0.00000000
Si       1.63991430      -2.89606878       0.51033486       0.00000000
Si      -3.13272990       0.28997829       1.24030444       0.00000000
Si      -0.57723615      -3.28994469       1.12738901       0.00000000
Si       3.22721190       0.78231096       1.33179295       0.00000000
Si      -2.91071349       2.12069736      -0.22320011       0.00000000
Si       2.66098779      -1.00377351      -2.47063965       0.00000000
