10
Lattice="16.28999089631971 0.0 0.0 0.0 16.28999089631971 0.0 0.0 0.0 34.61538196595647" Properties=species:S:1:pos:R:3:initial_magmoms:R:1 pbc="T T T"
Si       1.32647841       1.35184194      -1.38657875       0.00000000
Si      -1.36145304       1.35360126       1.36031604       0.00000000
Si       1.35262386      -1.36243044       1.36038527       0.00000000
Si      -1.36216980      -1.36580247      -1.36621104       0.00000000
Si       2.71003698      -2.71474479       0.00204231       0.00000000
Si       2.71233387       2.71264338      -0.00235385       0.00000000
Si       2.71155195      -0.00333945       2.71734362       0.00000000
Si      -0.00355122       2.71182888       2.71720516       0.00000000
Si      -2.72012049       2.71013472      -0.00024231       0.00000000
Si      -0.00309510      -2.71870326       2.71782823       0.00000000
