10
Lattice="16.28999089631971 0.0 0.0 0.0 16.28999089631971 0.0 0.0 0.0 34.61538196595647" Properties=species:S:1:pos:R:3:initial_magmoms:R:1 pbc="T T T"
Si      -1.35728280      -1.35659862       1.35751219       0.00000000
Si       1.35790182       1.35822762       1.35688912       0.00000000
Si       1.36145304      -1.35360126      -1.36031604       0.00000000
Si      -1.35866745       1.35653346      -1.36055835       0.00000000
Si      -2.69964396      -0.01848915      -2.71245939       0.00000000
Si      -2.71487511       0.00091224       2.71419362       0.00000000
Si       0.00125433      -2.71476108       2.71481669       0.00000000
Si       2.71477737       2.71511946       0.00062308       0.00000000
Si       2.71573848       0.00068418       2.71426285       0.00000000
Si       2.71407690      -2.71603170       0.00006923       0.00000000
