10
Lattice="16.28999089631971 0.0 0.0 0.0 16.28999089631971 0.0 0.0 0.0 34.61538196595647" Properties=species:S:1:pos:R:3:initial_magmoms:R:1 pbc="T T T"
Si       1.95761817       1.21702590       0.18996932       0.00000000
Si      -0.71776998      -1.12650237      -1.91707016       0.00000000
Si       0.02417436      -1.57929921       1.75067392       0.00000000
Si      -1.74327435       1.56356307       0.35252325       0.00000000
Si      -2.23233273      -2.69443116       1.68684312       0.00000000
Si      -1.45163448       0.25133841      -3.63562098       0.00000000
Si       1.99428696       3.31074702      -0.88130812       0.00000000
Si      -2.78616015      -2.21576580      -1.79823548       0.00000000
Si      -3.64423590       1.42012962      -1.02530819       0.00000000
Si       0.65844180      -2.63161692      -3.09447842       0.00000000
