10
Lattice="16.28999089631971 0.0 0.0 0.0 16.28999089631971 0.0 0.0 0.0 34.61538196595647" Properties=species:S:1:pos:R:3:initial_magmoms:R:1 pbc="T T T"
Si      -1.14807033       1.83800070      -0.85361580       0.00000000
Si      -1.32737436      -1.72950930      -0.83734656       0.00000000
Si       2.19928032      -0.54436293      -0.61303876       0.00000000
Si       0.06934653       0.02684592       2.36966653       0.00000000
Si       2.14778763       1.15292475       2.41857809       0.00000000
Si      -0.29320371      -2.28626892       2.63326281       0.00000000
Si      -2.19416526      -2.42970237       1.25543137       0.00000000
Si      -0.55195407       3.44447163       0.72107342       0.00000000
Si       1.84125870       3.07149579       1.00170048       0.00000000
Si       1.99607886      -2.51647920      -1.88643553       0.00000000
