10
Lattice="16.28999089631971 0.0 0.0 0.0 16.28999089631971 0.0 0.0 0.0 34.61538196595647" Properties=species:S:1:pos:R:3:initial_magmoms:R:1 pbc="T T T"
Si      -0.59611626      -1.60647093      -1.57468922       0.00000000
Si      -0.80544276       2.12793242      -0.65831570       0.00000000
Si      -0.99922860      -0.23809464       2.15778566       0.00000000
Si       2.39321277      -0.37297584       0.28062706       0.00000000
Si       0.55195407      -3.44447163      -0.72107342       0.00000000
Si       1.00641249       0.28424421       3.43488627       0.00000000
Si       0.56303127       3.49929467       0.68974649       0.00000000
Si      -3.02619330       2.19552452       0.05559233       0.00000000
Si       0.54121896      -1.06302024      -3.58632865       0.00000000
Si       0.62130060      -3.41762571       1.64859310       0.00000000
