10
Lattice="16.28999089631971 0.0 0.0 0.0 16.28999089631971 0.0 0.0 0.0 34.61538196595647" Properties=species:S:1:pos:R:3:initial_magmoms:R:1 pbc="T T T"
Si      -2.22075054       0.06759210       0.71390804       0.00000000
Si       1.36847403       1.37136225       1.34806219       0.00000000
Si       0.80544276      -2.12793242       0.65831570       0.00000000
Si       0.20134440       1.20764775      -2.05006253       0.00000000
Si       2.50092225       0.87836169      -2.31431650       0.00000000
Si      -0.26687907       2.95918113       1.97221249       0.00000000
Si      -2.50305624       2.37003699       1.05871205       0.00000000
Si       3.12544827       1.91091963      -0.25033858       0.00000000
Si      -0.19378584      -2.36602706       2.81610136       0.00000000
Si      -2.26074249      -1.04633276       2.74621286       0.00000000
