10
Lattice="16.28999089631971 0.0 0.0 0.0 16.28999089631971 0.0 0.0 0.0 34.61538196595647" Properties=species:S:1:pos:R:3:initial_magmoms:R:1 pbc="T T T"
Si      -1.35637056       1.35648459       1.35768527       0.00000000
Si       1.35786924       1.35635427      -1.35799681       0.00000000
Si       1.35826020      -1.35742941       1.35823912       0.00000000
Si      -1.35896067      -1.35830907      -1.35733912       0.00000000
Si      -2.71327869       0.00107514      -2.71132054       0.00000000
Si      -2.71355562       2.71391400       0.00055385       0.00000000
Si       0.00193851       2.71401174       2.71391669       0.00000000
Si      -2.71344159       0.00021177       2.71492054       0.00000000
Si      -2.71379997      -2.71556743       0.00020769       0.00000000
Si       2.71515204       0.00027693       2.71447054       0.00000000
