10
Lattice="16.28999089631971 0.0 0.0 0.0 16.28999089631971 0.0 0.0 0.0 34.61538196595647" Properties=species:S:1:pos:R:3:initial_magmoms:R:1 pbc="T T T"
Si       1.35620766       1.35826020      -1.35636988       0.00000000
Si      -1.35830907      -1.35752715      -1.35623142       0.00000000
Si       1.35615879      -1.35935163       1.35827373       0.00000000
Si      -1.36001952       1.35560493       1.36215066       0.00000000
Si       2.71321353      -2.71373481       0.00055385       0.00000000
Si       2.71391400       0.00076563      -2.71339746       0.00000000
Si      -0.00193851      -2.71401174      -2.71391669       0.00000000
Si      -2.71549413      -0.00009774      -2.71336285       0.00000000
Si      -0.00084708       2.71526607      -2.71384746       0.00000000
Si      -2.71538010      -2.71379997       0.00100385       0.00000000
