10
Lattice="16.28999089631971 0.0 0.0 0.0 16.28999089631971 0.0 0.0 0.0 34.61538196595647" Properties=species:S:1:pos:R:3:initial_magmoms:R:1 pbc="T T T"
Si      -0.87329061      -2.01590379       0.65156570       0.00000000
Si       0.71400699       1.66247595       1.47302379       0.00000000
Si       0.14778288      -0.12360852      -2.32940882       0.00000000
Si      -2.51320491       0.88016499       0.14123084       0.00000000
Si       0.55169343      -2.19625038       2.49324351       0.00000000
Si       3.27688011      -1.04197356      -0.43857713       0.00000000
Si       1.32784677       1.96099020      -2.59193202       0.00000000
Si       2.65168620      -1.48170582       1.80678549       0.00000000
Si       2.16026577      -1.59954768      -2.48206274       0.00000000
Si      -1.10587923      -3.19771071      -1.47894302       0.00000000
