10
Lattice="16.28999089631971 0.0 0.0 0.0 16.28999089631971 0.0 0.0 0.0 34.61538196595647" Properties=species:S:1:pos:R:3:initial_magmoms:R:1 pbc="T T T"
Si       0.03999195       1.11392486      -2.03230483       0.00000000
Si      -1.98478079      -1.28009331       0.18501932       0.00000000
Si       2.06695665      -1.31969430       0.06988850       0.00000000
Si      -1.09236342      -2.67094980       2.00343558       0.00000000
Si       2.26074249       1.04633276      -2.74621286       0.00000000
Si      -0.24231375       3.41636975      -1.68750081       0.00000000
Si      -1.75409810      -0.84677931       3.32508903       0.00000000
Si       3.06618525      -1.08159966      -2.08789716       0.00000000
Si       1.42910541       1.52049068       3.29314947       0.00000000
Si      -3.55880204      -0.20051687       1.72249698       0.00000000
