10
Lattice="16.28999089631971 0.0 0.0 0.0 16.28999089631971 0.0 0.0 0.0 34.61538196595647" Properties=species:S:1:pos:R:3:initial_magmoms:R:1 pbc="T T T"
Si      -1.63113399       1.79931195      -0.16397316       0.00000000
Si      -1.25617077      -1.70121357       1.27111215       0.00000000
Si       1.25061588      -0.41014962      -2.10638179       0.00000000
Si       1.69735284       0.88415604       1.77362393       0.00000000
Si      -0.11510514       2.56088574       1.88986245       0.00000000
Si       0.90486063      -1.01962368       3.21980836       0.00000000
Si      -3.02515074      -0.07871328       1.85881243       0.00000000
Si       3.13077510       1.98407313      -0.55568104       0.00000000
Si      -1.91894571      -3.16501668      -0.82381194       0.00000000
Si      -3.88764108       0.68418000      -0.22780396       0.00000000
