10
Lattice="16.28999089631971 0.0 0.0 0.0 16.28999089631971 0.0 0.0 0.0 34.61538196595647" Properties=species:S:1:pos:R:3:initial_magmoms:R:1 pbc="T T T"
Si      -1.32647841      -1.35184194       1.38657875       0.00000000
Si       1.38585546       1.36080144       1.38422490       0.00000000
Si       1.26574929      -1.33902171      -1.52705497       0.00000000
Si      -1.50574986       1.33639902      -1.51090688       0.00000000
Si       0.32718465       2.28939660      -2.64587112       0.00000000
Si       2.21263812       0.44460297      -2.82592317       0.00000000
Si      -2.67665877       2.71619460       0.02327540       0.00000000
Si       2.71788876      -2.67985161       0.02588540       0.00000000
Si      -2.68864821      -2.71764441       0.02036770       0.00000000
Si      -2.68793145       0.00175932       2.74689479       0.00000000
