10
Lattice="16.28999089631971 0.0 0.0 0.0 16.28999089631971 0.0 0.0 0.0 34.61538196595647" Properties=species:S:1:pos:R:3:initial_magmoms:R:1 pbc="T T T"
Si       1.21999068       1.96088824      -0.56675797       0.00000000
Si       1.26982179      -2.01940614      -0.40749250       0.00000000
Si      -2.24368686       0.25080084      -0.93357737       0.00000000
Si      -0.21624975       0.36123075       2.41646655       0.00000000
Si      -1.38872250       1.41848337      -2.74693979       0.00000000
Si      -0.37983393      -3.46911840       0.41493482       0.00000000
Si      -2.45531025      -0.30845115       2.51051660       0.00000000
Si      -2.24122707      -2.42800821       1.46911225       0.00000000
Si       3.31514532       1.46653724       0.43452713       0.00000000
Si      -3.76888698       0.76089549       0.86611196       0.00000000
