10
Lattice="16.28999089631971 0.0 0.0 0.0 16.28999089631971 0.0 0.0 0.0 34.61538196595647" Properties=species:S:1:pos:R:3:initial_magmoms:R:1 pbc="T T T"
Si      -1.64965572      -1.44971226       0.82242732       0.00000000
Si      -1.26982179       2.01940614       0.40749250       0.00000000
Si       1.92285531      -0.16768926       1.46014686       0.00000000
Si       0.55407177      -0.48980772      -2.33037805       0.00000000
Si       3.27088539       1.42601031       0.35203863       0.00000000
Si      -1.01779920      -2.77974189       2.61228588       0.00000000
Si      -1.48607154       2.38063689       2.82395905       0.00000000
Si      -0.04983111       3.98029438      -0.15926546       0.00000000
Si      -3.51104886      -0.40860207       1.87660475       0.00000000
Si      -1.33346682      -1.07992926      -3.62914790       0.00000000
