10
Lattice="16.28999089631971 0.0 0.0 0.0 16.28999089631971 0.0 0.0 0.0 34.61538196595647" Properties=species:S:1:pos:R:3:initial_magmoms:R:1 pbc="T T T"
Si      -0.27644130       0.17895868      -2.33453190       0.00000000
Si       2.37226124       0.23654709      -0.16148085       0.00000000
Si      -1.23160545       1.61527405       1.26256215       0.00000000
Si      -0.54623628      -2.28853390       0.43210405       0.00000000
Si       0.94912056      -1.88097439      -2.82451290       0.00000000
Si       0.61747245       2.34628780      -2.66112821       0.00000000
Si      -3.43311750       1.43945608       0.15580392       0.00000000
Si       2.96637220      -1.57320742      -1.63080079       0.00000000
Si       2.67608277       2.15606947      -1.54568151       0.00000000
Si       0.97933851      -2.98887358       2.11057025       0.00000000
