10
Lattice="16.28999089631971 0.0 0.0 0.0 16.28999089631971 0.0 0.0 0.0 34.61538196595647" Properties=species:S:1:pos:R:3:initial_magmoms:R:1 pbc="T T T"
Si      -0.25119180      -0.88261826       2.20628183       0.00000000
Si       1.23160545      -1.61527405      -1.26256215       0.00000000
Si       0.72710415       2.27396997       0.51078486       0.00000000
Si      -2.20151205      -0.17581797      -1.10675823       0.00000000
Si      -1.06880319       2.77941609       2.05158560       0.00000000
Si      -0.19833075       1.02714966       3.61609790       0.00000000
Si      -1.60565643      -2.86918118       2.15314719       0.00000000
Si       0.05175333       2.26817073      -3.21355540       0.00000000
Si       0.86364693       3.59595234      -1.41670453       0.00000000
Si      -2.57623092      -2.54162186      -1.61515463       0.00000000
