10
Lattice="16.28999089631971 0.0 0.0 0.0 16.28999089631971 0.0 0.0 0.0 34.61538196595647" Properties=species:S:1:pos:R:3:initial_magmoms:R:1 pbc="T T T"
Si       1.35694071       1.35594702      -1.35771989       0.00000000
Si      -1.35770634       1.35749457       1.35702758       0.00000000
Si       1.35798327      -1.35826020       1.35754681       0.00000000
Si      -1.35798327      -1.35842310      -1.35851604       0.00000000
Si      -2.71391400      -0.00076563       2.71339746       0.00000000
Si      -0.00070047      -2.71450044       2.71395131       0.00000000
Si      -0.00114030       2.71241532      -2.71658208       0.00000000
Si      -2.71476108       2.71450044      -0.00045000       0.00000000
Si      -0.00034209       2.71564074       2.71388208       0.00000000
Si       2.71510317       2.71472850      -0.00038077       0.00000000
