10
Lattice="16.28999089631971 0.0 0.0 0.0 16.28999089631971 0.0 0.0 0.0 34.61538196595647" Properties=species:S:1:pos:R:3:initial_magmoms:R:1 pbc="T T T"
Si      -0.80153316       1.73548773      -1.26200830       0.00000000
Si       0.30864663       0.68124780       2.16879335       0.00000000
Si       2.13117183      -0.68000976      -0.61920030       0.00000000
Si      -1.15196364      -1.89253962      -0.75347344       0.00000000
Si      -0.52676973      -1.45280736      -2.99883606       0.00000000
Si      -3.08964285       1.25164215      -1.08723514       0.00000000
Si       2.17113120      -2.70922248       0.56668873       0.00000000
Si      -0.32869962       0.89612919      -3.41688626       0.00000000
Si       3.51531914       1.02565098       0.27872321       0.00000000
Si      -0.53636454       3.63840408       0.09342697       0.00000000
