10
Lattice="16.28999089631971 0.0 0.0 0.0 16.28999089631971 0.0 0.0 0.0 34.61538196595647" Properties=species:S:1:pos:R:3:initial_magmoms:R:1 pbc="T T T"
Si       1.01126691      -0.15058476      -2.20122798       0.00000000
Si       1.85020421      -0.07281630       1.64203532       0.00000000
Si      -1.94028561      -1.57156146      -0.42718867       0.00000000
Si      -0.92051532       2.34856188      -0.31873862       0.00000000
Si       0.02471193      -0.92351268       2.94951400       0.00000000
Si      -1.13283918      -2.52719802       1.59234308       0.00000000
Si      -2.81075805       0.18070497      -1.99170096       0.00000000
Si       2.24739188       1.93407912      -1.90083553       0.00000000
Si      -1.01485071      -0.32474115      -3.53250170       0.00000000
Si      -3.27160215       2.14980759      -0.82710040       0.00000000
