10
Lattice="16.28999089631971 0.0 0.0 0.0 16.28999089631971 0.0 0.0 0.0 34.61538196595647" Properties=species:S:1:pos:R:3:initial_magmoms:R:1 pbc="T T T"
Si      -1.38080556      -1.32258510      -1.36190489       0.00000000
Si       1.35808101      -1.35646830       1.35886219       0.00000000
Si      -1.35521397       1.35915615       1.35948527       0.00000000
Si       1.36467846       1.36036161      -1.38063182       0.00000000
Si      -0.11878668      -2.61158022      -2.79926789       0.00000000
Si      -2.71513575      -2.70932022       0.00083077       0.00000000
Si       2.71691136      -2.71164969       0.00190385       0.00000000
Si       0.00114030      -2.71241532       2.71658208       0.00000000
Si      -2.71362078       0.00208512       2.71613208       0.00000000
Si      -2.71283886       2.71806795      -0.00356539       0.00000000
