10
Lattice="16.28999089631971 0.0 0.0 0.0 16.28999089631971 0.0 0.0 0.0 34.61538196595647" Properties=species:S:1:pos:R:3:initial_magmoms:R:1 pbc="T T T"
Si      -1.35665075       1.35842310      -1.36263527       0.00000000
Si       1.35990549      -1.35786924      -1.36125066       0.00000000
Si      -1.35510646      -1.35568638       1.38118913       0.00000000
Si       1.36759437       1.35514881       1.38122374       0.00000000
Si      -2.71324736       2.71425609      -0.00619616       0.00000000
Si       2.71691136       2.71492398      -0.00138462       0.00000000
Si      -2.71616921      -2.71617831      -0.00162692       0.00000000
Si      -2.71299061      -0.00043983      -2.72004362       0.00000000
Si       0.00149868       2.71480995      -2.72032054       0.00000000
Si       0.00216657      -2.71608057      -2.71959362       0.00000000
