10
Lattice="16.28999089631971 0.0 0.0 0.0 16.28999089631971 0.0 0.0 0.0 34.61538196595647" Properties=species:S:1:pos:R:3:initial_magmoms:R:1 pbc="T T T"
Si      -1.41227784       1.27516491      -1.43920454       0.00000000
Si      -0.84093867      -1.63351233       1.53436228       0.00000000
Si       1.31092146      -1.42107444      -1.45228916       0.00000000
Si       0.97814934       1.59658290       1.55277767       0.00000000
Si       2.61570159       2.55601503       0.00626539       0.00000000
Si      -2.62260855      -2.61034218      -0.08176158       0.00000000
Si      -2.64764628       2.62801683       0.11177313       0.00000000
Si       2.65342923      -2.69661402      -0.01464231       0.00000000
Si      -0.04751793       2.63585232      -2.81433597       0.00000000
Si      -0.77972085       3.42547749       1.60411231       0.00000000
