10
Lattice="16.28999089631971 0.0 0.0 0.0 16.28999089631971 0.0 0.0 0.0 34.61538196595647" Properties=species:S:1:pos:R:3:initial_magmoms:R:1 pbc="T T T"
Si      -2.10986451      -1.07566128       0.33331170       0.00000000
Si       1.82636964       0.06898815       1.64693156       0.00000000
Si      -1.15049754       2.11308993       0.79023500       0.00000000
Si       0.55724832      -1.14512184      -2.49580505       0.00000000
Si       3.18917475       1.71647730       0.63145415       0.00000000
Si      -1.73918556      -3.18599820      -0.73481574       0.00000000
Si      -3.89928843       0.47801376      -0.18245778       0.00000000
Si       0.27810288       3.94222887       0.07795388       0.00000000
Si       0.40791789      -3.84002541       1.00048894       0.00000000
Si       2.37633633       2.08497339      -2.47738966       0.00000000
