10
Lattice="16.28999089631971 0.0 0.0 0.0 16.28999089631971 0.0 0.0 0.0 34.61538196595647" Properties=species:S:1:pos:R:3:initial_magmoms:R:1 pbc="T T T"
Si       1.36084542       1.34486982      -1.36825335       0.00000000
Si      -1.35366220      -1.36195803      -1.35894527       0.00000000
Si       1.35714759      -1.35799956       1.36076604       0.00000000
Si      -1.35950044       1.35687555       1.36003912       0.00000000
Si      -0.08431867       2.65794156      -2.67886168       0.00000000
Si       2.58958383      -0.22392234      -2.76111133       0.00000000
Si       2.71610826       2.71336014       0.00114231       0.00000000
Si      -2.71376317      -2.71643243       0.00218077       0.00000000
Si      -2.71513153       2.71630863       0.00384231       0.00000000
Si       2.71446297       0.00022806       2.71834746       0.00000000
