10
Lattice="16.28999089631971 0.0 0.0 0.0 16.28999089631971 0.0 0.0 0.0 34.61538196595647" Properties=species:S:1:pos:R:3:initial_magmoms:R:1 pbc="T T T"
Si       1.67291784      -1.43055522      -1.08020821       0.00000000
Si      -1.52915859       1.23320187      -1.47690071       0.00000000
Si       1.19267235       2.15006823       0.69947341       0.00000000
Si      -0.46524240      -0.67186476       2.42626271       0.00000000
Si      -1.63989801      -1.99894590       0.06698080       0.00000000
Si       2.94966288      -2.36245725       0.75645036       0.00000000
Si      -1.55362617      -0.03450222      -3.53097863       0.00000000
Si      -3.76711137       0.83131128      -0.72823881       0.00000000
Si       2.66157423       1.59687612       2.43103963       0.00000000
Si       0.51715863      -2.87837784      -2.64551666       0.00000000
