10
Lattice="16.28999089631971 0.0 0.0 0.0 16.28999089631971 0.0 0.0 0.0 34.61538196595647" Properties=species:S:1:pos:R:3:initial_magmoms:R:1 pbc="T T T"
Si       1.31183370      -1.45860660      -1.28732947       0.00000000
Si      -1.34990343      -1.35189081       1.36525566       0.00000000
Si       1.36627488       1.36136900       1.36248643       0.00000000
Si      -1.39152438       1.22340899      -1.50377611       0.00000000
Si       0.18223623       2.36458214      -2.74706929       0.00000000
Si      -2.70304857      -2.70179424       0.01000385       0.00000000
Si      -2.70150102       2.70947402      -0.02097001       0.00000000
Si       2.72507265      -0.32474115      -2.67215875       0.00000000
Si      -2.70826137       0.00417961       2.72103708       0.00000000
Si       0.00632052      -2.70850572       2.72152170       0.00000000
