10
Lattice="16.28999089631971 0.0 0.0 0.0 16.28999089631971 0.0 0.0 0.0 34.61538196595647" Properties=species:S:1:pos:R:3:initial_magmoms:R:1 pbc="T T T"
Si       1.35043341       1.35407367      -1.37689682       0.00000000
Si      -1.36634004      -1.35879777      -1.37786605       0.00000000
Si      -1.33954299       1.28071980       1.54429690       0.00000000
Si       1.29687948      -1.43863506       1.44273531       0.00000000
Si      -2.09854296      -0.56917260       3.04058224       0.00000000
Si       2.70453489       2.70468639       0.00425769       0.00000000
Si      -2.72191239       2.69536525       0.00432693       0.00000000
Si       2.70031904      -2.72533329      -0.01976539       0.00000000
Si      -0.34067277      -2.39806719       2.98924760       0.00000000
Si       2.70750944      -0.00221544      -2.73883978       0.00000000
