10
Lattice="16.28999089631971 0.0 0.0 0.0 16.28999089631971 0.0 0.0 0.0 34.61538196595647" Properties=species:S:1:pos:R:3:initial_magmoms:R:1 pbc="T T T"
Si       0.75899997       1.84989240      -1.49628534       0.00000000
Si      -1.86792543      -0.79746066      -1.49233918       0.00000000
Si      -0.34036326       0.02836089       2.50400890       0.00000000
Si       1.75787019      -1.82889459      -0.05133464       0.00000000
Si       2.09854296       0.56917260      -3.04058224       0.00000000
Si      -0.63255699      -2.15031258      -3.04331685       0.00000000
Si       3.39542244      -0.86946246      -1.59784692       0.00000000
Si       0.77972085      -3.42547749      -1.60411231       0.00000000
Si       1.80043596       3.59869625      -0.08667696       0.00000000
Si      -3.48122187      -2.03062995      -0.17020393       0.00000000
