10
Lattice="16.28999089631971 0.0 0.0 0.0 16.28999089631971 0.0 0.0 0.0 34.61538196595647" Properties=species:S:1:pos:R:3:initial_magmoms:R:1 pbc="T T T"
Si      -0.97814934      -1.59658290      -1.55277767       0.00000000
Si       1.63755225       0.95943213      -1.54651228       0.00000000
Si      -1.75787019       1.82889459       0.05133464       0.00000000
Si       0.81283842      -0.36849609       3.10884381       0.00000000
Si      -1.81908801      -3.23009523      -0.01841539       0.00000000
Si       3.20865012       2.00458224      -0.10557697       0.00000000
Si      -2.09823345       1.85725548       2.55534354       0.00000000
Si      -2.39042718      -0.32141799      -2.99198221       0.00000000
Si       0.34067277       2.39806719      -2.98924760       0.00000000
Si       2.78029968      -2.73188187      -0.18553855       0.00000000
