10
Lattice="16.28999089631971 0.0 0.0 0.0 16.28999089631971 0.0 0.0 0.0 34.61538196595647" Properties=species:S:1:pos:R:3:initial_magmoms:R:1 pbc="T T T"
Si       1.64358674      -1.52655219      -0.75904652       0.00000000
Si      -1.52557479       0.70033968      -1.67846619       0.00000000
Si      -1.57260402      -0.91328256       1.55561613       0.00000000
Si       0.71032545       1.55302344       1.72246237       0.00000000
Si      -0.10370214      -1.46647467       3.28718235       0.00000000
Si      -0.97933851       2.98887358      -2.11057025       0.00000000
Si       0.50080347      -3.44494404      -1.62031232       0.00000000
Si      -3.74239944       0.57627504      -0.82952348       0.00000000
Si       1.60274282       0.16216695       3.54087863       0.00000000
Si       2.88452636      -2.38795110       1.06587744       0.00000000
