10
Lattice="16.28999089631971 0.0 0.0 0.0 16.28999089631971 0.0 0.0 0.0 34.61538196595647" Properties=species:S:1:pos:R:3:initial_magmoms:R:1 pbc="T T T"
Si      -2.28462689      -0.34210629       0.40063865       0.00000000
Si       0.88347186       1.85350878      -1.16238518       0.00000000
Si       0.42406128       1.10087820       2.04878176       0.00000000
Si       0.60409836      -2.34346311      -0.42102713       0.00000000
Si       3.04219008       1.05077016      -1.51182765       0.00000000
Si      -2.10030228      -1.18107387       2.68774745       0.00000000
Si       0.13587489      -0.59192973       3.60124789       0.00000000
Si      -0.95684202      -2.86008417      -2.14404334       0.00000000
Si      -2.85635050      -2.28561732      -0.81844655       0.00000000
Si      -1.38688173       2.61454500       2.42155501       0.00000000
