10
Lattice="16.28999089631971 0.0 0.0 0.0 16.28999089631971 0.0 0.0 0.0 34.61538196595647" Properties=species:S:1:pos:R:3:initial_magmoms:R:1 pbc="T T T"
Si      -0.28818639      -1.69280793       1.55246613       0.00000000
Si       2.06839017       1.08926343      -0.11883467       0.00000000
Si      -0.42406128      -1.10087820      -2.04878176       0.00000000
Si      -1.81094301       1.51366680       0.37277326       0.00000000
Si       0.45941058       0.75263058      -3.21116693       0.00000000
Si       1.33452567       2.46710421      -1.83738550       0.00000000
Si      -2.52436356      -2.28195207       0.63896569       0.00000000
Si      -2.70868817      -1.44298449      -1.64814310       0.00000000
Si       0.55382742      -0.47866536       3.48507860       0.00000000
Si       1.34716671      -3.28062681       0.92831583       0.00000000
