10
Lattice="16.28999089631971 0.0 0.0 0.0 16.28999089631971 0.0 0.0 0.0 34.61538196595647" Properties=species:S:1:pos:R:3:initial_magmoms:R:1 pbc="T T T"
Si       1.35303111      -1.35564124       1.36035066       0.00000000
Si       1.36199061       1.35578901      -1.35174181       0.00000000
Si      -1.36031274       1.35877008       1.35996989       0.00000000
Si      -1.37347506      -1.36934216      -1.38325567       0.00000000
Si      -0.12787650       2.49284730      -2.76190749       0.00000000
Si       2.71261080      -2.71334615      -0.00138462       0.00000000
Si       2.71197549       0.00196783       2.71741285       0.00000000
Si      -2.71626628      -2.71357421       0.00238846       0.00000000
Si       2.71249677       2.71861041       0.00588462       0.00000000
Si      -0.00309510      -2.71350905       2.71762054       0.00000000
