10
Lattice="16.28999089631971 0.0 0.0 0.0 16.28999089631971 0.0 0.0 0.0 34.61538196595647" Properties=species:S:1:pos:R:3:initial_magmoms:R:1 pbc="T T T"
Si       1.23424606      -1.24631532       1.53076920       0.00000000
Si      -0.82809401      -1.95326874      -1.22377009       0.00000000
Si       1.80902242       0.97466328      -1.35084323       0.00000000
Si      -1.47203512       1.45994238       1.51921458       0.00000000
Si      -0.83066294       2.04846750      -2.47193223       0.00000000
Si       2.53615915      -2.66579334       0.08679466       0.00000000
Si      -2.53710790       0.41982588      -2.72562851       0.00000000
Si       2.59804486       2.72007162       0.07388657       0.00000000
Si       3.44637919      -0.95379579      -1.38158171       0.00000000
Si      -2.83089805      -2.58496236       0.03302655       0.00000000
