10
Lattice="16.28999089631971 0.0 0.0 0.0 16.28999089631971 0.0 0.0 0.0 34.61538196595647" Properties=species:S:1:pos:R:3:initial_magmoms:R:1 pbc="T T T"
Si       1.32737436       1.72950930       0.83734656       0.00000000
Si       1.32581052      -1.86898428      -0.51753486       0.00000000
Si      -0.86679090      -0.70019307       2.09277793       0.00000000
Si      -1.41993414       0.94222989      -1.68037004       0.00000000
Si      -2.42353009      -1.18216530      -2.09167024       0.00000000
Si       0.17930403       3.56751000      -0.01626924       0.00000000
Si       3.32345322      -0.78696990      -1.04908897       0.00000000
Si      -2.08979523       2.88686493      -0.47011177       0.00000000
Si       1.03417065      -0.55675962       3.47060937       0.00000000
Si       3.52665468       1.18514637       0.22430780       0.00000000
