10
Lattice="16.290000149 0.0 0.0 0.0 16.290000149 0.0 0.0 0.0 29.1751946751" Properties=species:S:1:pos:R:3:initial_magmoms:R:1 pbc="T T T"
H        0.45465390       1.28347282      -0.66134331       0.00000000
Si      -0.80988994       0.98562646       1.94405992       0.00000000
Si      -1.87711301      -0.70609006      -1.27626889       0.00000000
Si       2.01287387      -1.36304947      -0.08527909       0.00000000
H        0.96694183      -0.25212033      -2.48324669       0.00000000
H       -0.65391319      -2.66514176      -1.05509174       0.00000000
Si       3.15834270       0.70390720      -0.68299131       0.00000000
Si      -2.31143699       2.29421846       0.64917726       0.00000000
Si       0.78789844      -2.95262769      -1.49613316       0.00000000
Si       1.99892963       0.85568113      -2.70054354       0.00000000
