10
Lattice="16.290000149 0.0 0.0 0.0 16.290000149 0.0 0.0 0.0 29.1751946751" Properties=species:S:1:pos:R:3:initial_magmoms:R:1 pbc="T T T"
Si      -1.08033652      -1.16458840       1.70809095       0.00000000
Si       0.87628798      -1.78026896      -1.28362104       0.00000000
Si       1.87589126       1.45893241       0.15640822       0.00000000
Si      -1.59889609       1.30359097      -1.21103316       0.00000000
H        0.47488608       2.25567632       1.78622212       0.00000000
H       -1.24292701      -0.37336680       2.98535180       0.00000000
H        2.59393817       1.54290736       1.48078701       0.00000000
Si       1.99718660      -0.33842475      -2.83413676       0.00000000
Si      -3.29189952      -1.09755505       0.90122176       0.00000000
Si      -0.28346229       2.65833254      -2.59860541       0.00000000
