10
Lattice="16.290000149 0.0 0.0 0.0 16.290000149 0.0 0.0 0.0 29.1751946751" Properties=species:S:1:pos:R:3:initial_magmoms:R:1 pbc="T T T"
Si      -1.36735003      -1.35816247      -1.32901764       0.00000000
Si      -1.43858620       1.33429762       1.28079105       0.00000000
Si       1.35365014       1.35138583      -1.36192726       0.00000000
Si       1.36321237      -1.32636439       1.38010341       0.00000000
Si      -0.08842212       2.67742442       2.59256615       0.00000000
Si      -0.09420507      -2.62474256       2.68230905       0.00000000
Si       0.00384444      -2.71485884      -2.66174054       0.00000000
Si      -2.71044425       0.02492370      -2.67268123       0.00000000
Si       2.73230543      -0.01456326      -2.67378989       0.00000000
Si       2.73075788       2.69146640      -0.02946695       0.00000000
