10
Lattice="16.290000149 0.0 0.0 0.0 16.290000149 0.0 0.0 0.0 29.1751946751" Properties=species:S:1:pos:R:3:initial_magmoms:R:1 pbc="T T T"
Si       0.34485930      -0.87640201      -2.13798744       0.00000000
Si      -1.81933238       1.46482939       0.16358532       0.00000000
Si       1.61914456       1.69228667       0.05648318       0.00000000
Si       0.23605839      -1.52959843       1.83118109       0.00000000
H       -0.86944618      -1.49747455       2.87057658       0.00000000
Si       1.06570810       2.73737163       2.06245286       0.00000000
Si       2.31011750      -0.82699444       2.71107579       0.00000000
Si       1.39986487       0.88744663      -3.31946612       0.00000000
Si      -3.63975618       0.17428671       0.81617607       0.00000000
Si       3.55871343      -1.06632712       0.77638111       0.00000000
