10
Lattice="16.290000149 0.0 0.0 0.0 16.290000149 0.0 0.0 0.0 29.1751946751" Properties=species:S:1:pos:R:3:initial_magmoms:R:1 pbc="T T T"
Si      -1.27188232       1.36115983       1.42246579       0.00000000
Si       1.34765216      -1.33581259       1.37601888       0.00000000
Si       1.34188550       1.36902790      -1.36277334       0.00000000
Si      -1.37914725      -1.36146934      -1.33397743       0.00000000
Si       2.66031667       0.13191642       2.65570127       0.00000000
Si       0.01707192      -2.69893700      -2.68204647       0.00000000
Si      -2.66312506       2.71674848       0.07150840       0.00000000
Si      -2.68329208       0.01901043      -2.70897518       0.00000000
Si      -0.06140516      -2.63187921       2.76420382       0.00000000
Si       2.71977517       0.02319696      -2.72061608       0.00000000
