10
Lattice="16.290000149 0.0 0.0 0.0 16.290000149 0.0 0.0 0.0 29.1751946751" Properties=species:S:1:pos:R:3:initial_magmoms:R:1 pbc="T T T"
Si       1.67659940      -1.67956418      -0.25058575       0.00000000
Si      -1.85854241      -0.84515779      -1.25348306       0.00000000
Si      -0.63252442       0.33036120       2.33031032       0.00000000
Si       0.69255307       1.86038318      -1.42345775       0.00000000
H        2.21153042       0.78433093       1.12333252       0.00000000
H       -1.05036292       2.49051296       0.08880929       0.00000000
H       -2.61726545      -0.28269666       1.24099608       0.00000000
H        0.59067541      -1.62869050       2.55148748       0.00000000
H       -0.49044303       2.36708363      -2.22933498       0.00000000
H       -3.26963109       0.13761792       1.19994658       0.00000000
