10
Lattice="16.290000149 0.0 0.0 0.0 16.290000149 0.0 0.0 0.0 29.1751946751" Properties=species:S:1:pos:R:3:initial_magmoms:R:1 pbc="T T T"
Si       1.74723284       0.32195556      -1.49117338       0.00000000
Si      -1.91984168       1.06029656      -0.77527245       0.00000000
Si       0.64397629       0.68064019       2.14329733       0.00000000
Si      -0.04497669      -2.14910714       0.97331367       0.00000000
Si       1.86417875      -1.98281882      -1.72740493       0.00000000
Si      -0.59841316      -1.10402218       2.97928335       0.00000000
H        1.32453991       2.98631541       0.01307049       0.00000000
Si      -0.75753388       2.49979826      -2.27805755       0.00000000
Si      -2.89437465       1.46297233       1.37706919       0.00000000
Si       2.15202305      -2.86938579       0.51077013       0.00000000
