10
Lattice="16.290000149 0.0 0.0 0.0 16.290000149 0.0 0.0 0.0 29.1751946751" Properties=species:S:1:pos:R:3:initial_magmoms:R:1 pbc="T T T"
Si      -1.36875097      -1.34868169      -1.33782855       0.00000000
Si      -1.36544410       1.34721559       1.35002378       0.00000000
Si       1.32507748      -1.38357487       1.36003088       0.00000000
Si       1.38506003       1.33149574      -1.36787900       0.00000000
Si       0.07377741      -2.68017418      -2.62057434       0.00000000
Si       2.69515935      -0.01438407       2.68502234       0.00000000
Si      -0.00651600       2.71231760       2.68125874       0.00000000
Si      -2.69483843       2.71371854      -0.02614097       0.00000000
Si       0.05515794       2.74043415      -2.67877885       0.00000000
Si      -2.72109791      -0.03047859       2.70614518       0.00000000
