10
Lattice="16.290000149 0.0 0.0 0.0 16.290000149 0.0 0.0 0.0 29.1751946751" Properties=species:S:1:pos:R:3:initial_magmoms:R:1 pbc="T T T"
Si       1.42984336      -1.21340953       1.38497567       0.00000000
Si      -1.43708264       1.24423021       1.36662447       0.00000000
Si      -1.35869988      -1.41090949      -1.31259201       0.00000000
Si       1.36735492       1.42980589      -1.29823781       0.00000000
H       -1.18771043      -1.45401283       3.06179081       0.00000000
Si      -0.04917951      -2.41862519       2.77167267       0.00000000
Si       2.57349911      -2.64015290      -0.07935653       0.00000000
Si      -0.01796950       2.68407074       2.53205680       0.00000000
Si       2.56524008       0.02718801      -2.77461936       0.00000000
Si      -2.72555649       2.65841399       0.00717710       0.00000000
