10
Lattice="16.290000149 0.0 0.0 0.0 16.290000149 0.0 0.0 0.0 29.1751946751" Properties=species:S:1:pos:R:3:initial_magmoms:R:1 pbc="T T T"
Si       1.21990924      -1.42561936       1.43744054       0.00000000
Si      -1.48256920       1.29242173       1.33123496       0.00000000
Si      -1.53901405      -1.20739852      -1.37523115       0.00000000
Si       1.62409672       1.47604180      -0.95802587       0.00000000
H       -0.49923963      -1.58653198      -2.63355730       0.00000000
Si       2.56528406      -2.76874617       0.08665033       0.00000000
Si       0.89492374       3.66481020      -0.55190716       0.00000000
Si      -0.17839179       2.57139607       2.83509663       0.00000000
Si      -2.79357213      -2.67291209       0.08854672       0.00000000
Si      -2.83442745       2.67660830      -0.07366737       0.00000000
