10
Lattice="16.290000149 0.0 0.0 0.0 16.290000149 0.0 0.0 0.0 29.1751946751" Properties=species:S:1:pos:R:3:initial_magmoms:R:1 pbc="T T T"
Si       1.53505558      -1.27329157      -1.19947978       0.00000000
Si       1.39282759       1.32214528       1.36738302       0.00000000
Si      -1.21670011      -1.43402500       1.44228450       0.00000000
Si      -1.47183409       1.20824560      -1.45400418       0.00000000
H        0.35424234      -1.81167608      -2.25045782       0.00000000
Si      -2.67406868       2.68623731      -0.03115911       0.00000000
Si       2.85106605       2.50305626      -0.04691371       0.00000000
Si      -2.64979658      -0.06094089       2.72344024       0.00000000
Si      -0.13729212       2.53645076      -2.85152518       0.00000000
Si       0.06297714       2.76213243       2.68000713       0.00000000
