10
Lattice="16.290000149 0.0 0.0 0.0 16.290000149 0.0 0.0 0.0 29.1751946751" Properties=species:S:1:pos:R:3:initial_magmoms:R:1 pbc="T T T"
Si      -0.22587714       2.12775095       0.92768367       0.00000000
Si      -1.82886203      -0.73948456      -1.36572004       0.00000000
Si       0.33049152      -1.93888469       1.38929360       0.00000000
Si       2.12020868       0.59707738      -0.99356125       0.00000000
H        2.19116792      -0.21991500       1.58686801       0.00000000
H       -1.33138171       2.15987483       1.96707915       0.00000000
H        2.84353356      -0.64022959       1.62791751       0.00000000
Si       1.94114900      -2.72517041      -0.13265961       0.00000000
H       -1.07051365      -1.14214078       3.01910750       0.00000000
H        1.04853844      -1.85490974       2.71367238       0.00000000
