10
Lattice="16.290000149 0.0 0.0 0.0 16.290000149 0.0 0.0 0.0 29.1751946751" Properties=species:S:1:pos:R:3:initial_magmoms:R:1 pbc="T T T"
Si       1.13853092      -0.96461236      -0.29011814       0.00000000
Si      -1.88681044       1.64051705      -0.26132222       0.00000000
H       -1.15224547      -1.80426413       1.92775099       0.00000000
Si      -1.53092281       1.40390479       2.09970959       0.00000000
Si      -0.17830953      -2.66377340      -1.42760063       0.00000000
Si       2.42849205      -0.81775801       1.73644924       0.00000000
Si       2.61755379       0.24060330      -1.67681514       0.00000000
Si      -0.24937221       2.69824304      -1.69516634       0.00000000
Si      -1.08206815      -0.73023184       2.98972807       0.00000000
Si      -2.95649330      -0.05217687      -1.64381799       0.00000000
