10
Lattice="16.290000149 0.0 0.0 0.0 16.290000149 0.0 0.0 0.0 29.1751946751" Properties=species:S:1:pos:R:3:initial_magmoms:R:1 pbc="T T T"
Si      -1.33358086      -1.33948599       1.32930939       0.00000000
Si       1.49695327      -1.23593697      -1.28086982       0.00000000
Si      -1.24892173       1.37148769      -1.41261333       0.00000000
Si       1.41982012       1.42926832       1.23542362       0.00000000
Si       0.65809972       2.16189479      -2.53479635       0.00000000
H       -0.55154683      -0.45840060      -3.33174888       0.00000000
Si       2.36232695       0.49404312      -2.66053473       0.00000000
Si       0.10036269      -2.68633505       2.59075729       0.00000000
Si      -2.66369195       0.08052147       2.61494352       0.00000000
Si      -2.69513165      -2.62132329      -0.08017927       0.00000000
