10
Lattice="16.290000149 0.0 0.0 0.0 16.290000149 0.0 0.0 0.0 29.1751946751" Properties=species:S:1:pos:R:3:initial_magmoms:R:1 pbc="T T T"
Si      -0.51377520      -0.90894943      -2.09425382       0.00000000
Si       2.05651478       1.00458802       0.72754183       0.00000000
Si      -1.41648719       1.94751839       0.00212979       0.00000000
Si      -0.68024760      -1.76137256       1.50876602       0.00000000
H        1.44933760       1.56730978      -2.38361340       0.00000000
Si      -1.94289203      -0.33371694       2.83502981       0.00000000
H        2.84895813      -0.46128393      -1.92069059       0.00000000
Si       0.25052391       1.20542743      -3.27077272       0.00000000
Si       1.05044437       2.25030062       2.56735878       0.00000000
Si      -3.08486991       1.16470243       1.45067820       0.00000000
