10
Lattice="16.290000149 0.0 0.0 0.0 16.290000149 0.0 0.0 0.0 29.1751946751" Properties=species:S:1:pos:R:3:initial_magmoms:R:1 pbc="T T T"
H       -0.64635463      -0.82815103       1.07493087       0.00000000
Si       1.23818662      -1.36673101      -1.41613477       0.00000000
Si      -1.57848472       1.08491401      -1.32324095       0.00000000
Si       1.27454590       1.46261395       1.30028008       0.00000000
H       -2.08782416      -1.73956025       0.52947143       0.00000000
Si      -3.17977545       1.01317285       0.46511095       0.00000000
H       -1.27578394      -2.49320081       2.17043026       0.00000000
Si       2.50861115      -0.02912652       2.65978580       0.00000000
Si      -0.28255005       2.67656105      -2.59758428       0.00000000
Si       2.56228670      -2.73921240      -0.08008591       0.00000000
