10
Lattice="16.290000149 0.0 0.0 0.0 16.290000149 0.0 0.0 0.0 29.1751946751" Properties=species:S:1:pos:R:3:initial_magmoms:R:1 pbc="T T T"
Si      -1.41949432       1.37259541      -1.25324966       0.00000000
Si      -1.30173391      -1.23429331       1.50246418       0.00000000
Si       1.18224676      -1.45135756      -1.41301303       0.00000000
Si       1.85609891       0.93032191       1.10579823       0.00000000
Si       3.45636336      -0.84686824       1.01051204       0.00000000
Si      -0.04351059       2.69301395      -2.61681074       0.00000000
Si       2.57670335      -2.73616617      -0.05479102       0.00000000
Si       2.56673387      -0.11562642      -2.75317560       0.00000000
Si       0.14431311      -2.59011002       2.78156306       0.00000000
Si      -2.77607667      -0.00925272      -2.60371107       0.00000000
