10
Lattice="16.290000149 0.0 0.0 0.0 16.290000149 0.0 0.0 0.0 29.1751946751" Properties=species:S:1:pos:R:3:initial_magmoms:R:1 pbc="T T T"
Si      -1.86864221      -1.34811154      -0.43281401       0.00000000
Si       0.52670457       1.25950372      -1.93166046       0.00000000
H       -0.82803700      -0.95068441       2.02965994       0.00000000
Si       1.93502396      -1.48587607       0.31016149       0.00000000
Si      -1.60474420       1.53818164       1.06827893       0.00000000
H       -2.85288402      -1.43597980       0.73536078       0.00000000
Si       0.20103489       2.86669794       1.67754452       0.00000000
Si      -2.76330531       0.09699066      -2.00100990       0.00000000
Si       0.00462636      -1.82306279       2.94675301       0.00000000
Si       1.55646064      -0.35917821      -3.25446379       0.00000000
