10
Lattice="16.290000149 0.0 0.0 0.0 16.290000149 0.0 0.0 0.0 29.1751946751" Properties=species:S:1:pos:R:3:initial_magmoms:R:1 pbc="T T T"
Si       1.42627096       1.39018861       1.17847364       0.00000000
Si      -1.31950630       1.44088309      -1.27597714       0.00000000
Si       1.43469289      -1.32168916      -1.28187053       0.00000000
Si      -1.38448711      -1.33573114       1.34016257       0.00000000
Si       0.05758515      -2.66176973      -2.61433084       0.00000000
Si      -2.66817170       0.07908795      -2.62390031       0.00000000
Si       0.00996948      -2.62053974       2.69838458       0.00000000
Si      -2.56673387       0.11562642       2.75317560       0.00000000
Si       2.72161919       0.09598068       2.60339015       0.00000000
Si       0.06954201       2.80039764      -2.58924018       0.00000000
