10
Lattice="16.290000149 0.0 0.0 0.0 16.290000149 0.0 0.0 0.0 29.1751946751" Properties=species:S:1:pos:R:3:initial_magmoms:R:1 pbc="T T T"
Si      -1.36812381       1.40265046      -1.30771975       0.00000000
Si       1.17625204       1.46750095       1.44779278       0.00000000
Si      -1.48691863      -1.19946529       1.43551877       0.00000000
Si       1.00607041      -1.24571260      -1.83981695       0.00000000
Si      -2.46693156      -0.30278223      -2.56522899       0.00000000
Si      -1.05044437      -2.25030062      -2.56735878       0.00000000
Si       2.39109509       0.49464585      -2.75976919       0.00000000
Si      -0.12841407      -2.53866620       2.81657329       0.00000000
Si       2.54790263       0.11551239       2.81020727       0.00000000
Si       2.48674997       2.94244644       0.17295756       0.00000000
