10
Lattice="16.290000149 0.0 0.0 0.0 16.290000149 0.0 0.0 0.0 29.1751946751" Properties=species:S:1:pos:R:3:initial_magmoms:R:1 pbc="T T T"
Si       1.37622645      -1.24318765       1.43956071       0.00000000
Si      -1.16784135       1.59437301       1.28586753       0.00000000
Si       1.29065508       1.45560104      -1.33435670       0.00000000
Si      -1.45875485      -1.37604889      -1.35615057       0.00000000
Si      -0.53667080       2.62464808      -2.28503042       0.00000000
Si      -1.45557830       3.42521688      -0.28218248       0.00000000
Si      -0.00328244      -2.58572801      -2.69928901       0.00000000
Si       2.80666766      -2.47000385       0.08950950       0.00000000
Si      -2.64391752       0.28800720       2.65945904       0.00000000
Si       0.02259586      -2.69423570       2.68206689       0.00000000
