10
Lattice="16.290000149 0.0 0.0 0.0 16.290000149 0.0 0.0 0.0 29.1751946751" Properties=species:S:1:pos:R:3:initial_magmoms:R:1 pbc="T T T"
Si      -1.19000080      -1.14985377      -1.69076088       0.00000000
Si       0.57138805      -1.73924748       1.51792703       0.00000000
Si      -1.99581824       0.88248144       0.97736902       0.00000000
Si       1.44031864       1.42111029      -1.34614348       0.00000000
H        0.46638270       2.28061957       2.00920813       0.00000000
Si      -2.73105110       2.20881325      -0.81331690       0.00000000
Si      -2.48204216      -2.58895018      -0.41069922       0.00000000
Si      -2.62293437       0.47774009      -2.61914475       0.00000000
Si      -3.51179823      -0.97026825       0.91210411       0.00000000
H       -0.76139461       0.11129165       3.74136861       0.00000000
