10
Lattice="16.290000149 0.0 0.0 0.0 16.290000149 0.0 0.0 0.0 29.1751946751" Properties=species:S:1:pos:R:3:initial_magmoms:R:1 pbc="T T T"
Si      -1.35977518      -1.36360333       1.34214648       0.00000000
Si      -1.35988921       1.35305882      -1.35279543       0.00000000
Si       1.33196815       1.35489307       1.38319598       0.00000000
Si       1.35086455      -1.36076887      -1.35994335       0.00000000
Si       2.68354946       2.70632288       0.00991957       0.00000000
Si      -2.71246421       0.02168199       2.67930400       0.00000000
Si       0.02764413      -2.70611111       2.68916522       0.00000000
Si      -2.70690932      -0.03481173      -2.69190769       0.00000000
Si       2.66414807      -0.01141929       2.75518868       0.00000000
Si      -0.01027899       2.74121606      -2.68793986       0.00000000
