10
Lattice="16.290000149 0.0 0.0 0.0 16.290000149 0.0 0.0 0.0 29.1751946751" Properties=species:S:1:pos:R:3:initial_magmoms:R:1 pbc="T T T"
Si       1.83120779       1.01902096      -0.94708517       0.00000000
Si       1.40590846      -1.36632376       1.25177923       0.00000000
Si      -1.32208012       1.48760118       1.20731040       0.00000000
Si      -1.30728880      -1.18112275      -1.55136559       0.00000000
Si       0.99825121       2.26483130      -2.65968077       0.00000000
Si      -2.67156002       0.09052353       2.51626135       0.00000000
Si      -2.62629011      -2.58905117      -0.21422178       0.00000000
Si       0.04968450      -2.70726770       2.56626763       0.00000000
Si       2.74251927      -2.52128477      -0.30605363       0.00000000
Si       2.82750420       0.09330912       2.47745834       0.00000000
