10
Lattice="16.290000149 0.0 0.0 0.0 16.290000149 0.0 0.0 0.0 29.1751946751" Properties=species:S:1:pos:R:3:initial_magmoms:R:1 pbc="T T T"
H       -0.61432849       1.30494793      -0.44107059       0.00000000
Si      -0.84637954      -1.66318784      -1.39349482       0.00000000
Si       2.30747852       0.08784057      -0.35812551       0.00000000
Si      -0.76134574      -0.58298001       2.15146638       0.00000000
H        1.40159161       1.65293491      -1.85037837       0.00000000
Si       2.36452610      -1.97978399       0.93057201       0.00000000
Si      -2.22663614      -0.21142465      -2.54985366       0.00000000
Si      -2.12759294       2.77389869       0.19267299       0.00000000
Si       1.30854313      -1.29511528       3.00142733       0.00000000
Si       0.49508568       2.55237098      -2.65835621       0.00000000
