10
Lattice="16.290000149 0.0 0.0 0.0 16.290000149 0.0 0.0 0.0 29.1751946751" Properties=species:S:1:pos:R:3:initial_magmoms:R:1 pbc="T T T"
Si       1.34716672      -1.34483725       1.36443633       0.00000000
Si      -1.35408997       1.32928030       1.40078862       0.00000000
Si      -1.42159573      -1.45963288      -1.22567910       0.00000000
Si       1.45880209       1.43803984      -1.21416074       0.00000000
Si      -0.99629641       0.92571184      -3.42454351       0.00000000
Si       0.04250061       2.77967838      -2.47083848       0.00000000
Si      -2.82750420      -0.09330912      -2.47745834       0.00000000
Si       2.69068448      -2.64818387      -0.05998420       0.00000000
Si      -0.08498493      -2.61459389      -2.78351196       0.00000000
Si      -0.00895950      -2.71531496       2.71060899       0.00000000
