10
Lattice="16.290000149 0.0 0.0 0.0 16.290000149 0.0 0.0 0.0 29.1751946751" Properties=species:S:1:pos:R:3:initial_magmoms:R:1 pbc="T T T"
Si      -1.48963255       1.07413003       1.42503321       0.00000000
Si      -1.41911314      -1.43984053      -1.16543233       0.00000000
Si       1.55746085      -1.08105328       1.36472808       0.00000000
Si       1.32496997       1.49268529      -1.25435832       0.00000000
H       -2.52162035      -0.03367143       1.64233006       0.00000000
Si       1.97495726       0.74262853       2.83825046       0.00000000
Si      -0.33021948       0.92235610       3.44258545       0.00000000
Si       0.01796950      -2.68407074      -2.53205680       0.00000000
Si      -2.70758699      -0.02565675      -2.52487970       0.00000000
Si       2.82114132       0.15586272      -2.51274282       0.00000000
