10
Lattice="16.290000149 0.0 0.0 0.0 16.290000149 0.0 0.0 0.0 29.1751946751" Properties=species:S:1:pos:R:3:initial_magmoms:R:1 pbc="T T T"
Si       0.63702046      -0.40667985       2.14320980       0.00000000
Si       1.83198971       0.82722250      -1.16029749       0.00000000
Si      -0.87966001      -1.88929793      -1.06530306       0.00000000
Si      -1.60026445       1.77719015       0.09528619       0.00000000
H        2.67512753       1.75943405      -0.34660131       0.00000000
Si      -2.27411660      -0.60448933      -2.42352507       0.00000000
Si       0.53664147       2.12143043      -2.58521400       0.00000000
Si      -1.48318822      -1.00375723       3.13677106       0.00000000
Si      -3.45636336       0.84686824      -1.01051204       0.00000000
Si      -0.54525888       3.54103878      -1.08619250       0.00000000
