10
Lattice="16.290000149 0.0 0.0 0.0 16.290000149 0.0 0.0 0.0 29.1751946751" Properties=species:S:1:pos:R:3:initial_magmoms:R:1 pbc="T T T"
Si       1.43882787      -1.34944732       1.28700536       0.00000000
Si      -1.25784865      -1.36790389      -1.45549211       0.00000000
Si       1.37865529       1.32678793      -1.38946865       0.00000000
Si      -1.42952896       1.28285380       1.41155427       0.00000000
Si       0.09120771      -2.76043827       2.59300378       0.00000000
Si      -2.69117318       2.67406543      -0.01916810       0.00000000
Si      -0.03012021       2.69930027       2.67028887       0.00000000
Si      -2.59514363      -2.81566137      -0.19941246       0.00000000
Si      -2.72546363      -0.30879324       2.68589760       0.00000000
Si       2.74905481       2.69893374      -0.05925482       0.00000000
