10
Lattice="16.290000149 0.0 0.0 0.0 16.290000149 0.0 0.0 0.0 29.1751946751" Properties=species:S:1:pos:R:3:initial_magmoms:R:1 pbc="T T T"
Si       1.36691020       1.35026182      -1.35141252       0.00000000
Si      -1.34421823      -1.36954918      -1.36295423       0.00000000
Si       1.35159760      -1.31867551       1.40819912       0.00000000
Si      -1.36282141       1.37339362       1.35005296       0.00000000
Si       2.67170663       2.64453491       0.12521994       0.00000000
Si      -2.69915528      -2.68385897       0.03728590       0.00000000
Si       0.08381205      -2.74232379      -2.65853126       0.00000000
Si      -0.00426798       2.76275145      -2.65526948       0.00000000
Si       2.77063581      -2.64834677       0.10526410       0.00000000
Si      -2.71586882      -0.01756062      -2.72536872       0.00000000
