10
Lattice="16.290000149 0.0 0.0 0.0 16.290000149 0.0 0.0 0.0 29.1751946751" Properties=species:S:1:pos:R:3:initial_magmoms:R:1 pbc="T T T"
Si       1.38289069      -1.35485560      -1.32533573       0.00000000
Si       1.33762078       1.32471910       1.40514740       0.00000000
Si      -1.35277048      -1.39724218       1.32077273       0.00000000
Si      -1.33042060       1.39488013      -1.36845375       0.00000000
Si      -0.01821222      -2.66022218      -2.67027020       0.00000000
Si       2.70189200       0.05307282      -2.66247954       0.00000000
Si      -2.65983122       2.70969491       0.05078526       0.00000000
Si      -2.70400970      -0.02764413       2.67978248       0.00000000
Si      -2.74203056       0.03259629      -2.66132216       0.00000000
Si       2.68710068       2.72179676       0.09619645       0.00000000
