10
Lattice="16.290000149 0.0 0.0 0.0 16.290000149 0.0 0.0 0.0 29.1751946751" Properties=species:S:1:pos:R:3:initial_magmoms:R:1 pbc="T T T"
Si       1.34235954       1.36085032       1.35419584       0.00000000
Si      -1.33607323       1.37547874      -1.35352481       0.00000000
Si       1.36560212      -1.35122293      -1.34976121       0.00000000
Si      -1.35384562      -1.34806267       1.37380157       0.00000000
Si      -2.69500133       0.01037673      -2.68475976       0.00000000
Si       2.67133196       0.00195480       2.72000340       0.00000000
Si      -0.00447975      -2.72041373      -2.67475267       0.00000000
Si       2.69382845      -2.71204067       0.02456551       0.00000000
Si      -2.68325624       2.72318303       0.01315801       0.00000000
Si       2.69275331       2.72619668      -0.01003627       0.00000000
