10
Lattice="16.290000149 0.0 0.0 0.0 16.290000149 0.0 0.0 0.0 29.1751946751" Properties=species:S:1:pos:R:3:initial_magmoms:R:1 pbc="T T T"
Si       1.34972425       1.33216363       1.38678161       0.00000000
Si       1.32985045      -1.43998714      -1.31262410       0.00000000
Si      -1.34092765      -1.41894046       1.35851085       0.00000000
Si      -1.42594516       1.36575361      -1.33674615       0.00000000
H        0.49065480       1.65389114      -3.21510937       0.00000000
Si      -2.76255597       2.52071462       0.22108671       0.00000000
Si       2.65338038       2.68638392      -0.04701874       0.00000000
Si      -0.06297714      -2.76213243      -2.68000713       0.00000000
Si       2.69775434      -0.05256783       2.74902980       0.00000000
Si      -2.73704583      -0.07589511      -2.71116623       0.00000000
