10
Lattice="16.290000149 0.0 0.0 0.0 16.290000149 0.0 0.0 0.0 29.1751946751" Properties=species:S:1:pos:R:3:initial_magmoms:R:1 pbc="T T T"
Si      -1.49053501       1.26359902       1.28499227       0.00000000
Si       1.29496884       1.35887923      -1.44557255       0.00000000
Si      -1.42713433      -1.27092952      -1.40428965       0.00000000
Si       1.28764876      -1.34799751       1.50120964       0.00000000
H        1.46595829       1.31577589       2.92881027       0.00000000
Si      -2.88372099      -0.56029456       2.03403622       0.00000000
Si      -2.77560426      -2.29136771       0.22820837       0.00000000
Si       2.50544601      -2.63415981      -0.10383452       0.00000000
Si       2.60448921       0.35116353       2.63869213       0.00000000
Si       2.65366872       2.76978873      -0.13298054       0.00000000
