10
Lattice="16.290000149 0.0 0.0 0.0 16.290000149 0.0 0.0 0.0 29.1751946751" Properties=species:S:1:pos:R:3:initial_magmoms:R:1 pbc="T T T"
H       -1.05050953       1.10959010       0.01765099       0.00000000
Si      -0.82846054      -1.93060774       1.01981893       0.00000000
Si       0.28227312      -0.74094903      -2.20579059       0.00000000
Si       1.85849842       0.91429744       1.12368262       0.00000000
Si       2.54984114      -1.22777568      -2.08646405       0.00000000
Si      -2.39259377      -2.71734959      -0.56979155       0.00000000
Si       0.93959092       1.71486623       3.12653056       0.00000000
H        0.17726778       3.27891802      -1.71450949       0.00000000
Si      -2.87252976       0.53088459       2.40219800       0.00000000
Si       0.93641437      -3.08639954       2.05256247       0.00000000
