10
Lattice="16.290000149 0.0 0.0 0.0 16.290000149 0.0 0.0 0.0 29.1751946751" Properties=species:S:1:pos:R:3:initial_magmoms:R:1 pbc="T T T"
Si       1.34795866       1.35361756      -1.35749263       0.00000000
Si      -1.34392501       1.36508572       1.35110327       0.00000000
Si       1.34291503      -1.35772264       1.36919189       0.00000000
Si      -1.37072206      -1.34788348      -1.35582965       0.00000000
Si      -2.68121999      -0.08267175       2.60718292       0.00000000
Si       2.67034642      -2.70673013      -0.02657860       0.00000000
Si       2.66222748       2.71994132       0.03681910       0.00000000
Si      -0.02070459       2.71042796      -2.69800530       0.00000000
Si       2.69119436       0.02052540       2.72070360       0.00000000
Si      -0.02691108      -2.67879278      -2.74299345       0.00000000
