10
Lattice="16.290000149 0.0 0.0 0.0 16.290000149 0.0 0.0 0.0 29.1751946751" Properties=species:S:1:pos:R:3:initial_magmoms:R:1 pbc="T T T"
Si       0.64635463       0.82815103      -1.07493087       0.00000000
H       -1.44146953      -0.91140922      -0.54545944       0.00000000
H       -0.62942932      -1.66504979       1.09549938       0.00000000
Si      -2.24557652       0.95475691       1.62835514       0.00000000
Si       0.55356679      -2.17175024       1.90137661       0.00000000
Si       1.92090053       2.29076498       0.22534920       0.00000000
Si       1.88454125      -0.53857998      -2.49106565       0.00000000
Si      -2.53342082       1.84132388      -0.60981992       0.00000000
Si      -0.93213010       1.91306504      -2.39817183       0.00000000
Si      -2.28460736      -1.84362077      -1.35915562       0.00000000
