10
Lattice="16.290000149 0.0 0.0 0.0 16.290000149 0.0 0.0 0.0 29.1751946751" Properties=species:S:1:pos:R:3:initial_magmoms:R:1 pbc="T T T"
Si      -1.34762015      -1.41099094       1.30599841       0.00000000
Si       1.33844286      -1.36301689      -1.37289714       0.00000000
Si      -1.43882787       1.34944732      -1.28700536       0.00000000
Si       1.37906849       1.35967744       1.35746346       0.00000000
Si      -2.58580678      -0.04425993       2.72213319       0.00000000
Si      -0.06017257       2.67623525      -2.67647401       0.00000000
Si      -0.00044952       2.75528737       2.65520529       0.00000000
Si       2.70880165      -2.70563870      -0.01601718       0.00000000
Si       2.69845750      -0.01277136      -2.72659699       0.00000000
Si       2.71593667       2.71002071      -0.01307049       0.00000000
