10
Lattice="16.290000149 0.0 0.0 0.0 16.290000149 0.0 0.0 0.0 29.1751946751" Properties=species:S:1:pos:R:3:initial_magmoms:R:1 pbc="T T T"
Si      -1.37153656       1.35981754      -1.31346726       0.00000000
Si      -1.38743560      -1.35900955       1.30442295       0.00000000
Si       1.32341590      -1.35233065      -1.38477144       0.00000000
Si       1.35558865       1.37219957       1.33806195       0.00000000
Si      -0.00516393      -2.70495452       2.64032594       0.00000000
Si      -0.02612916       2.69472440      -2.65600178       0.00000000
Si       2.67289580       0.04474700      -2.69372238       0.00000000
Si      -2.70536177       0.01154961       2.69333727       0.00000000
Si       2.73808838       0.01275507       2.66042765       0.00000000
Si      -0.00423540       2.72934066       2.67799112       0.00000000
