10
Lattice="16.290000149 0.0 0.0 0.0 16.290000149 0.0 0.0 0.0 29.1751946751" Properties=species:S:1:pos:R:3:initial_magmoms:R:1 pbc="T T T"
Si       1.33011109      -1.42000746      -1.28563413       0.00000000
Si      -1.34874685      -1.37439220       1.33666154       0.00000000
Si       1.38592063       1.34985457       1.32467054       0.00000000
Si      -1.29963250       1.35104374      -1.41788529       0.00000000
Si       2.66369195      -0.08052147      -2.61494352       0.00000000
Si       0.01464471       2.69521310       2.66328682       0.00000000
Si      -2.67827150       2.69812901      -0.06724882       0.00000000
Si      -2.70857090      -0.01725111       2.67659071       0.00000000
Si      -2.73046466      -0.05186736      -2.65740218       0.00000000
Si       0.03375288      -2.73383670       2.65902724       0.00000000
