10
Lattice="16.290000149 0.0 0.0 0.0 16.290000149 0.0 0.0 0.0 29.1751946751" Properties=species:S:1:pos:R:3:initial_magmoms:R:1 pbc="T T T"
Si       0.48912354      -0.41370084       2.21398882       0.00000000
Si       1.82042381       1.29054268      -0.65259075       0.00000000
Si      -1.66223162       1.64708192      -0.11010718       0.00000000
Si      -0.66938869      -1.87848137      -1.29911307       0.00000000
H        1.85828177       0.15995151       2.55729334       0.00000000
Si       0.78382594       2.11571264      -2.60595756       0.00000000
Si      -2.08892048      -0.66116224      -2.68382616       0.00000000
Si      -3.43355736       0.64198891      -1.26573665       0.00000000
Si      -0.74435527       3.37905102      -1.39130668       0.00000000
Si       3.63975618      -0.17428671      -0.81617607       0.00000000
