10
Lattice="16.290000149 0.0 0.0 0.0 16.290000149 0.0 0.0 0.0 29.1751946751" Properties=species:S:1:pos:R:3:initial_magmoms:R:1 pbc="T T T"
Si       1.35016408       1.34312680       1.31177510       0.00000000
Si      -1.30960198       1.42775335      -1.29701245       0.00000000
Si       1.43858620      -1.33429762      -1.28079105       0.00000000
Si      -1.37174833      -1.25255440       1.43331896       0.00000000
Si      -2.66049911       0.04145805      -2.61993248       0.00000000
Si       0.07123617      -2.69246009      -2.60980869       0.00000000
Si      -0.01733256      -2.61265538       2.73514533       0.00000000
Si      -2.68192046      -2.68278383       0.11010718       0.00000000
Si      -2.60815934       2.78523165       0.12107706       0.00000000
Si       0.06647949       2.75794590      -2.65228777       0.00000000
