10
Lattice="16.290000149 0.0 0.0 0.0 16.290000149 0.0 0.0 0.0 29.1751946751" Properties=species:S:1:pos:R:3:initial_magmoms:R:1 pbc="T T T"
Si       2.30009915       0.05338233      -0.45627087       0.00000000
Si      -0.86420080       2.07477587      -0.79444055       0.00000000
Si      -0.14690322       0.41163201       2.35767666       0.00000000
Si      -0.92958886      -2.07405911      -0.81912277       0.00000000
H       -2.31327776       0.18785628       0.91557596       0.00000000
H       -1.02679129       2.86599747       0.48282030       0.00000000
Si      -3.59248260       0.15490161       0.09327310       0.00000000
Si      -2.99947773      -1.36192383      -1.66908371       0.00000000
Si       3.06747219       2.09994392       0.42438238       0.00000000
Si       2.05656365       0.03375288       3.16227018       0.00000000
