10
Lattice="16.290000149 0.0 0.0 0.0 16.290000149 0.0 0.0 0.0 29.1751946751" Properties=species:S:1:pos:R:3:initial_magmoms:R:1 pbc="T T T"
Si      -1.36368478      -1.34977312       1.35011131       0.00000000
Si      -1.38973249       1.34868332      -1.33281042       0.00000000
Si       1.32019048      -1.36837630      -1.38377948       0.00000000
Si       1.36174627       1.34254851       1.37750682       0.00000000
Si      -0.06359616       2.70462872       2.67594886       0.00000000
Si       0.00993690      -2.70207119       2.69511696       0.00000000
Si       2.68972337      -2.71031393      -0.03048808       0.00000000
Si      -0.04528620       2.70374906      -2.69855963       0.00000000
Si       2.69695613       2.70661610       0.00834411       0.00000000
Si       2.69703758      -0.01283652      -2.71612310       0.00000000
