10
Lattice="16.290000149 0.0 0.0 0.0 16.290000149 0.0 0.0 0.0 29.1751946751" Properties=species:S:1:pos:R:3:initial_magmoms:R:1 pbc="T T T"
Si      -1.23233851       1.20175338       1.59360748       0.00000000
Si      -1.93958516      -0.85289554      -1.06424429       0.00000000
Si       1.30320001      -1.53025003       1.31398367       0.00000000
Si       1.47607617       1.30636581      -1.37359151       0.00000000
H       -0.85952557      -2.56274282      -1.85410696       0.00000000
Si      -2.64863999       2.54339193       0.33692974       0.00000000
Si       2.64391752      -0.28800720      -2.65945904       0.00000000
Si       2.82516658       2.52093943       0.10534871       0.00000000
Si      -3.68743701       0.68942539      -0.61677529       0.00000000
Si       2.69153645      -0.24347034       2.75029309       0.00000000
