10
Lattice="16.290000149 0.0 0.0 0.0 16.290000149 0.0 0.0 0.0 29.1751946751" Properties=species:S:1:pos:R:3:initial_magmoms:R:1 pbc="T T T"
H       -1.44181162       0.28748592       0.44104142       0.00000000
Si       0.44885466      -2.13413663       0.89001849       0.00000000
Si      -0.35588763       0.23661225      -2.36103180       0.00000000
Si       1.22497543       1.58957821       1.41085406       0.00000000
H        0.17904339       2.70050735      -0.98711354       0.00000000
H        1.53092281      -1.40390479      -2.09970959       0.00000000
H        0.37867734      -3.20816892      -0.17195860       0.00000000
Si      -0.78789844       2.95262769       1.49613316       0.00000000
Si       3.40995315       0.16923681       0.37078755       0.00000000
Si      -2.66501144       2.24653763       0.21986427       0.00000000
