10
Lattice="16.290000149 0.0 0.0 0.0 16.290000149 0.0 0.0 0.0 29.1751946751" Properties=species:S:1:pos:R:3:initial_magmoms:R:1 pbc="T T T"
Si       1.80577910       1.32851630       0.60926559       0.00000000
Si      -0.73813249      -0.33810873       2.26332408       0.00000000
Si      -1.22376997       1.87028913      -0.94909826       0.00000000
Si       1.60474420      -1.53818164      -1.06827893       0.00000000
H        0.77670721      -2.48886604       0.96138101       0.00000000
H       -1.24813981      -2.97416144      -0.33291815       0.00000000
Si      -0.26389800      -2.88629318      -1.50109294       0.00000000
Si       0.47291499       2.87549617       1.76614958       0.00000000
Si      -1.46730547       1.85065968       2.66944279       0.00000000
Si      -1.15856110      -1.44119097      -3.06928883       0.00000000
