10
Lattice="16.290000149 0.0 0.0 0.0 16.290000149 0.0 0.0 0.0 29.1751946751" Properties=species:S:1:pos:R:3:initial_magmoms:R:1 pbc="T T T"
Si      -1.38904831      -1.35951454       1.31326304       0.00000000
Si      -1.36953289       1.34193763      -1.35329141       0.00000000
Si       1.35249355      -1.36990756      -1.35060729       0.00000000
Si       1.37692855       1.36607941       1.33628227       0.00000000
Si       2.77234626      -0.08444736       2.52931433       0.00000000
Si       0.00731421       2.69747741      -2.68563502       0.00000000
Si      -0.06954201      -2.80039764       2.58924018       0.00000000
Si      -2.68972337       2.71031393       0.03048808       0.00000000
Si      -2.67978647       0.00824274       2.72560504       0.00000000
Si       2.72745101      -0.02736720      -2.69292882       0.00000000
