10
Lattice="16.290000149 0.0 0.0 0.0 16.290000149 0.0 0.0 0.0 29.1751946751" Properties=species:S:1:pos:R:3:initial_magmoms:R:1 pbc="T T T"
Si       1.32033546      -1.33621984      -1.40706129       0.00000000
Si       1.39176223       1.37528326       1.31203768       0.00000000
Si      -1.33981993       1.36567216      -1.37563960       0.00000000
Si      -1.35570268      -1.34739478       1.39302802       0.00000000
Si      -0.00925272       2.69506649       2.62778061       0.00000000
Si       2.64930788      -2.69511536      -0.04125373       0.00000000
Si      -2.69966027      -2.67447593      -0.01391657       0.00000000
Si      -2.72235224       2.70956459      -0.03921146       0.00000000
Si       2.67072923       0.02912652      -2.77129339       0.00000000
Si       0.03554006      -2.70298343       2.74398541       0.00000000
