10
Lattice="10.86 0.0 0.0 0.0 10.86 0.0 0.0 0.0 10.86" Properties=species:S:1:pos:R:3:initial_magmoms:R:1 pbc="T T T"
Si       1.05129144       1.46349360       1.30461180       0.00000000
Si       1.11612564      -0.70153428      -1.95501720       0.00000000
Si      -1.66370856      -1.25150640       1.30461180       0.00000000
Si      -1.66370856       1.46349360      -1.41038820       0.00000000
Si       2.23556358       2.73174612      -0.04101822       0.00000000
Si       2.40879144       0.10599360       2.66211180       0.00000000
Si       2.43082638      -2.73021486      -0.14476380       0.00000000
Si      -0.30620856      -2.60900640       2.66211180       0.00000000
Si      -0.10873032      -2.48330190      -2.82932322       0.00000000
Si      -0.30620856       2.82099360       2.66211180       0.00000000
