10
Lattice="10.86 0.0 0.0 0.0 10.86 0.0 0.0 0.0 10.86" Properties=species:S:1:pos:R:3:initial_magmoms:R:1 pbc="T T T"
Si      -1.18427214      -1.26825252       1.34563002       0.00000000
Si      -1.18427214       1.44674748      -1.36936998       0.00000000
Si       1.53072786       1.44674748       1.34563002       0.00000000
Si      -2.23556358      -2.73174612       0.04101822       0.00000000
Si      -2.54177214       0.08924748       2.70313002       0.00000000
Si      -2.63635188       0.23176326      -2.68408158       0.00000000
Si       0.17322786      -2.62575252       2.70313002       0.00000000
Si      -2.54177214       2.80424748      -0.01186998       0.00000000
Si       0.17322786       2.80424748       2.70313002       0.00000000
Si       0.17322786       2.80424748      -2.72686998       0.00000000
