10
Lattice="10.86 0.0 0.0 0.0 10.86 0.0 0.0 0.0 10.86" Properties=species:S:1:pos:R:3:initial_magmoms:R:1 pbc="T T T"
Si      -1.27290060       1.43370462      -1.30454664       0.00000000
Si       1.44209940      -1.28129538      -1.30454664       0.00000000
Si       1.44209940       1.43370462       1.41045336       0.00000000
Si      -0.01952628      -2.75573586      -2.41997724       0.00000000
Si      -2.99541606       0.10533114      -2.32024986       0.00000000
Si      -2.63040060       2.79120462       0.05295336       0.00000000
Si       2.79959940      -2.63879538       0.05295336       0.00000000
Si       0.08459940       2.79120462      -2.66204664       0.00000000
Si       2.79959940       0.07620462      -2.66204664       0.00000000
Si       0.08459940       2.79120462       2.76795336       0.00000000
