10
Lattice="10.86 0.0 0.0 0.0 10.86 0.0 0.0 0.0 10.86" Properties=species:S:1:pos:R:3:initial_magmoms:R:1 pbc="T T T"
Si       1.10960964       1.37566878       1.23128508       0.00000000
Si       1.10960964      -1.33933122      -1.48371492       0.00000000
Si      -1.60539036      -1.33933122       1.23128508       0.00000000
Si       2.46710964       0.01816878       2.58878508       0.00000000
Si       2.46710964      -2.69683122      -0.12621492       0.00000000
Si       2.46710964       2.73316878      -0.12621492       0.00000000
Si      -0.25288596       2.63668854       2.57313582       0.00000000
Si      -0.24789036      -2.69683122       2.58878508       0.00000000
Si       2.46710964       0.01816878      -2.84121492       0.00000000
Si      -2.97529248       0.05499504       2.50646628       0.00000000
