10
Lattice="10.86 0.0 0.0 0.0 10.86 0.0 0.0 0.0 10.86" Properties=species:S:1:pos:R:3:initial_magmoms:R:1 pbc="T T T"
Si      -1.20525366      -1.33621440       1.35960684       0.00000000
Si      -1.20525366       1.37878560      -1.35539316       0.00000000
Si       1.50974634       1.37878560       1.35960684       0.00000000
Si       1.50136242      -1.32855810      -1.45380648       0.00000000
Si      -2.56275366      -2.69371440       0.00210684       0.00000000
Si      -2.56275366       0.02128560      -2.71289316       0.00000000
Si      -2.56275366       0.02128560       2.71710684       0.00000000
Si      -2.56275366       2.73628560       0.00210684       0.00000000
Si       0.15224634      -2.69371440       2.71710684       0.00000000
Si       0.15224634       2.73628560       2.71710684       0.00000000
