10
Lattice="16.28999089631971 0.0 0.0 0.0 16.28999089631971 0.0 0.0 0.0 34.32429715621058" Properties=species:S:1:pos:R:3:initial_magmoms:R:1 pbc="T T T"
Si       2.27517543       0.58978922      -0.17467645       0.00000000
Si      -1.20791979       1.86890772      -0.88251250       0.00000000
Si      -0.20505852      -0.57617960       2.38341188       0.00000000
Si      -0.10011834      -1.63522508      -1.85152227       0.00000000
Si       2.18931084       1.23390723      -2.50824942       0.00000000
Si       3.11200902      -1.72087790       0.04959864       0.00000000
Si      -0.03399723       2.16255126      -2.94337877       0.00000000
Si       2.13591222      -2.39956817      -1.98240089       0.00000000
Si       2.50064532       2.60303286       1.13568865       0.00000000
Si      -1.51933572      -3.33526577      -1.15827405       0.00000000
