10
Lattice="16.28999089631971 0.0 0.0 0.0 16.28999089631971 0.0 0.0 0.0 34.32429715621058" Properties=species:S:1:pos:R:3:initial_magmoms:R:1 pbc="T T T"
Si       0.94424985      -0.10031382      -2.10449248       0.00000000
Si       0.54359730      -1.64628369       1.53312991       0.00000000
Si      -2.37946401       0.43978113       0.10698889       0.00000000
Si       0.24860169       2.39376663       0.40162883       0.00000000
Si      -1.95665706       2.48992650       1.17636297       0.00000000
Si      -0.63698787       1.53183015      -2.95762337       0.00000000
Si       0.23249088      -0.45571275       3.55596351       0.00000000
Si      -2.74660803       0.92822049      -2.14448031       0.00000000
Si       0.49511826      -2.25546616      -2.98549471       0.00000000
Si      -1.39688379       1.45600020       3.31387545       0.00000000
