10
Lattice="16.28999089631971 0.0 0.0 0.0 16.28999089631971 0.0 0.0 0.0 34.32429715621058" Properties=species:S:1:pos:R:3:initial_magmoms:R:1 pbc="T T T"
Si      -1.36322865      -1.35620766      -1.33507174       0.00000000
Si       1.35738054      -1.35527913       1.35828185       0.00000000
Si      -1.35703845       1.35751086       1.35762968       0.00000000
Si       1.34961021       1.38803832      -1.36231495       0.00000000
Si      -2.60949510       0.04201191      -2.73908044       0.00000000
Si       2.64059271       0.01544292      -2.76203998       0.00000000
Si      -2.71349046      -2.71277207      -0.00003432       0.00000000
Si       2.71572219      -2.71112841      -0.00418757       0.00000000
Si       2.71301805       2.71453302      -0.00085811       0.00000000
Si      -0.00008145      -2.71278510       2.71560261       0.00000000
