10
Lattice="16.28999089631971 0.0 0.0 0.0 16.28999089631971 0.0 0.0 0.0 34.32429715621058" Properties=species:S:1:pos:R:3:initial_magmoms:R:1 pbc="T T T"
Si       2.29996881      -0.20157246      -0.04256215       0.00000000
Si      -1.63794321       1.76686227       0.16503131       0.00000000
Si      -0.23631903       0.82652202       2.26777326       0.00000000
Si       0.27223848       1.17812538      -2.23557705       0.00000000
Si      -0.65751327      -2.31866973      -1.08890461       0.00000000
Si       2.27175453      -1.53036405      -1.91646388       0.00000000
Si      -2.12641515      -0.45426294       2.75720368       0.00000000
Si      -0.46384146       3.35578887      -1.11639839       0.00000000
Si      -3.49611093      -0.40663098       0.83648359       0.00000000
Si      -3.00172572      -2.01723957      -0.83493899       0.00000000
