10
Lattice="16.28999089631971 0.0 0.0 0.0 16.28999089631971 0.0 0.0 0.0 34.32429715621058" Properties=species:S:1:pos:R:3:initial_magmoms:R:1 pbc="T T T"
Si      -0.12248451      -1.40576184       1.84558417       0.00000000
Si       1.44129033      -0.90642447      -1.60414692       0.00000000
Si       0.51811974       2.28012759       0.25283291       0.00000000
Si      -2.27911761      -0.07078005      -0.72578767       0.00000000
Si      -1.85717403      -0.16200405       2.71711288       0.00000000
Si      -1.87826958      -1.66456107      -2.42309079       0.00000000
Si      -0.85046832       3.12289074      -1.54308397       0.00000000
Si       0.07159455      -0.85879251      -3.52486702       0.00000000
Si       2.08756350      -1.48346514       2.80175665       0.00000000
Si      -1.02957687      -3.50422335       1.05567867       0.00000000
