10
Lattice="16.28999089631971 0.0 0.0 0.0 16.28999089631971 0.0 0.0 0.0 34.32429715621058" Properties=species:S:1:pos:R:3:initial_magmoms:R:1 pbc="T T T"
Si       0.75305217       1.87615677       1.20375377       0.00000000
Si      -2.35109271      -0.32748276       0.00024027       0.00000000
Si       1.16166564      -1.94564732       0.81235359       0.00000000
Si       0.36598222       1.23828924      -2.36044891       0.00000000
Si       0.60482783      -1.36935336      -2.36202783       0.00000000
Si      -0.14116764      -3.03219032      -0.77586685       0.00000000
Si      -2.81270244       1.40962746      -1.47244452       0.00000000
Si       0.01292221       1.12189719       3.35262760       0.00000000
Si      -2.39722599      -2.65787870      -0.39201802       0.00000000
Si      -1.10047683       3.06501726      -1.55207694       0.00000000
