10
Lattice="16.28999089631971 0.0 0.0 0.0 16.28999089631971 0.0 0.0 0.0 34.32429715621058" Properties=species:S:1:pos:R:3:initial_magmoms:R:1 pbc="T T T"
Si      -0.36714402       0.48843936      -2.25146921       0.00000000
Si       0.42280695       2.05014537       1.06937408       0.00000000
Si       2.37946401      -0.43978113      -0.10698889       0.00000000
Si      -2.27481705      -0.32037543       0.79934468       0.00000000
Si       2.62806570       1.95398550       0.29463993       0.00000000
Si       0.98258022       1.01621907       3.20688655       0.00000000
Si      -1.82423565       2.31951681      -1.93403793       0.00000000
Si       1.74247614       1.09204902      -3.06461226       0.00000000
Si       2.92306131      -2.08606482       1.42614102       0.00000000
Si       0.16096149      -3.84479838      -0.43698287       0.00000000
