10
Lattice="16.28999089631971 0.0 0.0 0.0 16.28999089631971 0.0 0.0 0.0 34.32429715621058" Properties=species:S:1:pos:R:3:initial_magmoms:R:1 pbc="T T T"
Si      -0.04284270      -2.36696958      -0.23460670       0.00000000
Si      -1.39167099       1.11617451       1.58798017       0.00000000
Si       2.31243066       0.42899715       0.44968287       0.00000000
Si      -1.06047900       0.83098548      -1.99698872       0.00000000
Si       1.75280400      -2.83173957       1.22932539       0.00000000
Si      -3.45932811       0.70019307       0.43228044       0.00000000
Si      -3.23815878      -0.06952572      -1.84476038       0.00000000
Si       0.97300170      -2.71948518      -2.38718755       0.00000000
Si       2.42854578       1.24014141       2.66964235       0.00000000
Si       3.44735496      -1.63751967       0.11574159       0.00000000
