10
Lattice="16.28999089631971 0.0 0.0 0.0 16.28999089631971 0.0 0.0 0.0 34.32429715621058" Properties=species:S:1:pos:R:3:initial_magmoms:R:1 pbc="T T T"
Si      -1.35738054       1.35702941       1.35697752       0.00000000
Si       1.35728280      -1.35746199       1.35718347       0.00000000
Si      -1.35725022      -1.35757602      -1.35883104       0.00000000
Si       1.35861858       1.35897758      -1.35814455       0.00000000
Si       0.00089595       2.71242902       2.71474450       0.00000000
Si       2.71435383       0.00198738       2.71385207       0.00000000
Si      -2.71507222      -0.00131949       2.71388640       0.00000000
Si      -2.71463076       0.00317655      -2.71440126       0.00000000
Si       0.00022806      -2.71492398       2.71426396       0.00000000
Si      -2.71450207      -2.71494027      -0.00024027       0.00000000
