10
Lattice="16.28999089631971 0.0 0.0 0.0 16.28999089631971 0.0 0.0 0.0 34.32429715621058" Properties=species:S:1:pos:R:3:initial_magmoms:R:1 pbc="T T T"
Si      -1.41921738      -1.70004069       0.69324822       0.00000000
Si       2.23603056      -0.76434309      -0.13087862       0.00000000
Si      -0.89547759       1.06220574      -1.97745819       0.00000000
Si       0.10011834       1.63522508       1.85152227       0.00000000
Si       2.80947114       0.68931135      -1.86157930       0.00000000
Si      -1.54088739      -1.00585863      -3.12591549       0.00000000
Si       2.37529377       2.22501430       1.67684583       0.00000000
Si       1.10915352       1.94612787      -2.95206283       0.00000000
Si      -3.59383464      -0.89006931       0.20910374       0.00000000
Si       2.28942918       2.86913231      -0.65672714       0.00000000
