10
Lattice="16.28999089631971 0.0 0.0 0.0 16.28999089631971 0.0 0.0 0.0 34.32429715621058" Properties=species:S:1:pos:R:3:initial_magmoms:R:1 pbc="T T T"
Si       1.70031762      -1.25681652       1.09048353       0.00000000
Si      -2.00463111      -0.88392213       0.97460464       0.00000000
Si       0.33806637       1.00984642      -2.17063544       0.00000000
Si       1.18027566       0.92300443       2.29533568       0.00000000
Si      -1.04303241       1.85164846       1.86020632       0.00000000
Si      -0.40656582      -0.81222984      -3.47900973       0.00000000
Si      -1.10915352      -1.94612787       2.95206283       0.00000000
Si      -2.31984261      -1.85107572      -2.27103407       0.00000000
Si      -1.25820702       2.93877790      -2.01826980       0.00000000
Si      -2.65004091      -2.95198650      -0.17385266       0.00000000
