10
Lattice="16.28999089631971 0.0 0.0 0.0 16.28999089631971 0.0 0.0 0.0 34.32429715621058" Properties=species:S:1:pos:R:3:initial_magmoms:R:1 pbc="T T T"
Si      -1.08152568       1.70471592      -1.16898324       0.00000000
Si       2.01849390       1.16756946       0.12325862       0.00000000
Si      -1.09693602       0.18534762       2.07095763       0.00000000
Si      -0.22546989      -2.01324363      -1.31036510       0.00000000
Si       0.59362389       2.10088872      -2.80512043       0.00000000
Si       2.44499868       1.03674447       2.42339971       0.00000000
Si      -1.30188051      -1.98434029       2.83831204       0.00000000
Si      -3.30427989       0.89878446       1.50398857       0.00000000
Si       3.63832263      -0.10823076      -0.88731790       0.00000000
Si      -3.40327422       1.32225930      -0.88848493       0.00000000
