10
Lattice="16.28999089631971 0.0 0.0 0.0 16.28999089631971 0.0 0.0 0.0 34.32429715621058" Properties=species:S:1:pos:R:3:initial_magmoms:R:1 pbc="T T T"
Si       1.05588196       1.63266525       1.30833997       0.00000000
Si       1.25157373      -1.79668111       0.87729520       0.00000000
Si       0.33951292      -0.24060330      -2.36882404       0.00000000
Si      -2.93726034       0.31804596       1.69194853       0.00000000
Si       0.12103144      -3.40899920      -0.49179880       0.00000000
Si       0.59375095      -2.57076467      -2.66493992       0.00000000
Si      -0.10393834       3.77797680       0.31451371       0.00000000
Si       1.44926917       0.45129816       3.57113620       0.00000000
Si      -3.52580175      -1.59795289       0.31578371       0.00000000
Si       3.33069901       1.95304068       0.50899529       0.00000000
