10
Lattice="16.28999089631971 0.0 0.0 0.0 16.28999089631971 0.0 0.0 0.0 34.32429715621058" Properties=species:S:1:pos:R:3:initial_magmoms:R:1 pbc="T T T"
Si      -1.29098250       1.37259540       1.39972503       0.00000000
Si      -1.89747549      -0.87522912      -1.07570966       0.00000000
Si       1.39546656       1.22810310      -1.51619228       0.00000000
Si       1.42017849      -1.36767582       1.38014300       0.00000000
Si       2.71911051       2.61115668      -0.03826818       0.00000000
Si      -0.04781115       2.55713904      -2.81581387       0.00000000
Si      -2.64059271      -0.01544292       2.76203998       0.00000000
Si      -2.61228069       2.80132614      -0.05246815       0.00000000
Si       0.07242534       2.69909010       2.76118187       0.00000000
Si       0.07512948      -2.72657133       2.75785241       0.00000000
