10
Lattice="16.28999089631971 0.0 0.0 0.0 16.28999089631971 0.0 0.0 0.0 34.32429715621058" Properties=species:S:1:pos:R:3:initial_magmoms:R:1 pbc="T T T"
Si      -1.35720135      -1.35658233       1.35711482       0.00000000
Si       1.35713619       1.35860229       1.35725212       0.00000000
Si       1.35521397      -1.35866745      -1.35917428       0.00000000
Si      -1.35687555       1.36089918      -1.36061590       0.00000000
Si      -0.00819387      -2.68516215      -2.72063112       0.00000000
Si       2.71357191       2.71430496      -0.00054919       0.00000000
Si      -0.00003258      -2.71420722       2.71385207       0.00000000
Si       2.71466334       0.00110772       2.71429829       0.00000000
Si       2.71523349      -2.71381626      -0.00051486       0.00000000
Si      -2.71531494       0.00087966       2.71436694       0.00000000
