10
Lattice="16.28999089631971 0.0 0.0 0.0 16.28999089631971 0.0 0.0 0.0 34.32429715621058" Properties=species:S:1:pos:R:3:initial_magmoms:R:1 pbc="T T T"
Si      -1.59316200      -0.92198142      -1.46640344       0.00000000
Si      -0.16829199      -1.85530068       1.46197561       0.00000000
Si      -1.06816788       1.78670349       1.16496730       0.00000000
Si       2.12907042       0.18308331      -1.10891569       0.00000000
Si       1.45153674      -3.13110090       0.45139908       0.00000000
Si       3.16376235      -1.47571110       0.37176667       0.00000000
Si      -3.26831157      -1.31815422       0.16973374       0.00000000
Si      -3.29209497       0.90917748       1.00113733       0.00000000
Si      -2.15370090       0.62527536      -3.11318117       0.00000000
Si       2.22604479       2.56235184      -1.81908579       0.00000000
