10
Lattice="16.28999089631971 0.0 0.0 0.0 16.28999089631971 0.0 0.0 0.0 34.32429715621058" Properties=species:S:1:pos:R:3:initial_magmoms:R:1 pbc="T T T"
Si       1.35555606       1.35493704       1.38258346       0.00000000
Si      -1.36019871      -1.36578618       1.38323562       0.00000000
Si       1.28648646      -1.45371960      -1.41621443       0.00000000
Si      -1.36655181       1.34089506      -1.49718892       0.00000000
Si       2.69465922       2.70734913       0.00084095       0.00000000
Si      -2.71816569       2.69770545       0.00348392       0.00000000
Si      -2.72360655      -2.69228088       0.02177878       0.00000000
Si       2.70324405      -2.73341313       0.01653402       0.00000000
Si      -0.00184077       2.70718623       2.74186071       0.00000000
Si       2.71471221      -0.00860112       2.74247855       0.00000000
