10
Lattice="16.28999089631971 0.0 0.0 0.0 16.28999089631971 0.0 0.0 0.0 34.32429715621058" Properties=species:S:1:pos:R:3:initial_magmoms:R:1 pbc="T T T"
Si       1.35643572       1.35570267      -1.35780131       0.00000000
Si      -1.35715248       1.35703845       1.35728644       0.00000000
Si       1.35752715      -1.35749457       1.35704617       0.00000000
Si      -1.35713619      -1.35860229      -1.35725212       0.00000000
Si      -0.00039096       2.71274112       2.71453856       0.00000000
Si      -2.71437012       2.71441899       0.00000000       0.00000000
Si       2.71417464       0.00000000       2.71505342       0.00000000
Si      -2.71433754      -2.71518462      -0.00013730       0.00000000
Si       0.00060273      -2.71593396       2.71388640       0.00000000
Si       2.71536381       2.71471221      -0.00037757       0.00000000
