10
Lattice="16.28999089631971 0.0 0.0 0.0 16.28999089631971 0.0 0.0 0.0 34.32429715621058" Properties=species:S:1:pos:R:3:initial_magmoms:R:1 pbc="T T T"
Si       1.26117180      -1.36151820       1.42569480       0.00000000
Si      -1.35084825      -1.35586557      -1.36734347       0.00000000
Si       1.36135530       1.35625653      -1.36535266       0.00000000
Si      -1.24053237       1.40343237       1.49314209       0.00000000
Si       2.23980984       0.28862622       2.81514313       0.00000000
Si       0.60848037       2.23506945       2.93613634       0.00000000
Si      -0.51365628      -2.41856001       2.80985718       0.00000000
Si      -2.68659567       2.70576900       0.00919892       0.00000000
Si      -2.70920619      -0.00272043      -2.72466423       0.00000000
Si      -2.70925506      -2.72474685       0.00624703       0.00000000
