10
Lattice="16.28999089631971 0.0 0.0 0.0 16.28999089631971 0.0 0.0 0.0 34.32429715621058" Properties=species:S:1:pos:R:3:initial_magmoms:R:1 pbc="T T T"
Si       1.31165451      -1.33431390       1.40325357       0.00000000
Si       1.31126355       1.28234880      -1.56548886       0.00000000
Si      -1.43858619       1.39029476       1.38619438       0.00000000
Si      -0.75272832      -1.89613971      -1.35954296       0.00000000
Si      -0.35070741      -0.99759960      -3.53615083       0.00000000
Si       2.56409487       2.69131392      -0.04534585       0.00000000
Si       2.65228893      -2.73059496      -0.19415550       0.00000000
Si      -2.73991284      -2.65996152      -0.05118785       0.00000000
Si       2.64800466       0.03214017       2.78043095       0.00000000
Si      -0.06892299      -2.67835293       2.77219311       0.00000000
