10
Lattice="16.28999089631971 0.0 0.0 0.0 16.28999089631971 0.0 0.0 0.0 34.32429715621058" Properties=species:S:1:pos:R:3:initial_magmoms:R:1 pbc="T T T"
Si       1.35607734       1.35773892       1.35714914       0.00000000
Si      -1.35752715       1.35731538      -1.35735509       0.00000000
Si       1.35734796      -1.35729909      -1.35762968       0.00000000
Si      -1.35840681      -1.35927018       1.35728644       0.00000000
Si       2.71265967       0.00232947      -2.71371477       0.00000000
Si      -0.00004887      -2.71241532       2.71460721       0.00000000
Si       0.00016290       2.71303670      -2.71501910       0.00000000
Si       2.71215468      -0.00029322       2.71659802       0.00000000
Si       2.71453302      -2.71422351      -0.00034324       0.00000000
Si       2.71461447       2.71508265      -0.00017162       0.00000000
