10
Lattice="16.28999089631971 0.0 0.0 0.0 16.28999089631971 0.0 0.0 0.0 34.32429715621058" Properties=species:S:1:pos:R:3:initial_magmoms:R:1 pbc="T T T"
Si       1.33709949       1.36772741      -1.37781238       0.00000000
Si      -1.44982629       1.30642542       1.33030753       0.00000000
Si      -1.38062637      -1.34806266      -1.37317860       0.00000000
Si       1.44606330      -1.30233663       1.48394317       0.00000000
Si       2.68503183       2.69892950       0.00449649       0.00000000
Si       2.68659567      -2.70576900      -0.00919892       0.00000000
Si       2.69187363       0.00851967      -2.73400044       0.00000000
Si      -0.10810044      -2.65399938       2.78153962       0.00000000
Si      -0.02261052      -2.70848943      -2.73386315       0.00000000
Si      -2.73456972      -2.71350675      -0.01235675       0.00000000
