10
Lattice="16.28999089631971 0.0 0.0 0.0 16.28999089631971 0.0 0.0 0.0 34.32429715621058" Properties=species:S:1:pos:R:3:initial_magmoms:R:1 pbc="T T T"
Si       0.57344058       1.45365444      -1.73070068       0.00000000
Si       0.97609680       0.67869027       2.03199953       0.00000000
Si      -2.23603056       0.76434309       0.13087862       0.00000000
Si       0.75101787      -2.07611163      -0.87022439       0.00000000
Si       0.13926321       2.98935739       1.80772444       0.00000000
Si       3.18697560       0.12315240       1.46194128       0.00000000
Si      -0.85864590      -2.28447702      -2.57116589       0.00000000
Si       2.80043019       0.66639132      -2.27511866       0.00000000
Si       0.05339862       3.63347540      -0.52584853       0.00000000
Si      -2.13591222       2.39956817       1.98240089       0.00000000
