10
Lattice="16.28999089631971 0.0 0.0 0.0 16.28999089631971 0.0 0.0 0.0 34.32429715621058" Properties=species:S:1:pos:R:3:initial_magmoms:R:1 pbc="T T T"
Si      -1.35640878       1.35677781       1.35656563       0.00000000
Si       1.35732515      -1.35694071       1.35656563       0.00000000
Si      -1.35744044      -1.35762489      -1.35811022       0.00000000
Si       1.35699935       1.35873261      -1.35783563       0.00000000
Si      -2.71409060      -0.00162900       2.71319991       0.00000000
Si       2.71363055      -0.00070047       2.71385207       0.00000000
Si      -0.00127714      -2.71407690       2.71357748       0.00000000
Si       0.00005539       2.71487511       2.71371477       0.00000000
Si      -2.71518203       0.00118917      -2.71378342       0.00000000
Si      -2.71459559       2.71458189      -0.00054919       0.00000000
