10
Lattice="16.28999089631971 0.0 0.0 0.0 16.28999089631971 0.0 0.0 0.0 34.32429715621058" Properties=species:S:1:pos:R:3:initial_magmoms:R:1 pbc="T T T"
Si       0.40202091       0.89854011      -2.17660787       0.00000000
Si       0.75272832       1.89613971       1.35954296       0.00000000
Si       1.62404784      -1.88913501      -0.15188510       0.00000000
Si      -1.98718452      -0.76382181       1.30835511       0.00000000
Si       2.06438283       0.56182581       2.76279653       0.00000000
Si      -0.67649112      -2.15254431       2.75476464       0.00000000
Si       3.40501725      -0.83445525       1.16538747       0.00000000
Si       0.67512276      -3.50935470       1.25409180       0.00000000
Si       2.06399187       3.17848851      -0.20594590       0.00000000
Si      -1.03909023       0.08355141      -3.75913048       0.00000000
