10
Lattice="16.28999089631971 0.0 0.0 0.0 16.28999089631971 0.0 0.0 0.0 34.32429715621058" Properties=species:S:1:pos:R:3:initial_magmoms:R:1 pbc="T T T"
Si      -1.35620766       1.31766552      -1.34604523       0.00000000
Si       1.33277679       1.35285192       1.36312501       0.00000000
Si      -1.38391695      -1.35923434       1.35849122       0.00000000
Si       1.38136009      -1.25329233      -1.49587430       0.00000000
Si      -2.16836190      -0.56140227      -2.48524560       0.00000000
Si      -0.48738051      -2.22889391      -2.64208130       0.00000000
Si       2.67748046      -2.72455856      -0.02571235       0.00000000
Si       2.68919297      -0.00211770       2.71958766       0.00000000
Si       2.69683298       2.71551042      -0.00974124       0.00000000
Si      -0.02518167       2.71355562       2.71917577       0.00000000
