10
Lattice="16.28999089631971 0.0 0.0 0.0 16.28999089631971 0.0 0.0 0.0 34.32429715621058" Properties=species:S:1:pos:R:3:initial_magmoms:R:1 pbc="T T T"
Si      -1.36037205      -1.35003375      -1.36466617       0.00000000
Si       1.35293011       1.36363590      -1.36446022       0.00000000
Si      -1.35835470       1.20684465       1.50330208       0.00000000
Si       1.34441044      -1.26848601       1.49403452       0.00000000
Si      -0.47847314      -2.25240201       2.72995018       0.00000000
Si       0.36484387       2.06513217       2.93363067       0.00000000
Si       2.26342708       0.58178106       2.79856448       0.00000000
Si      -2.37357747      -0.60074262       2.78613908       0.00000000
Si       2.70718297      -2.70378162       0.03332891       0.00000000
Si      -2.71403847       2.71406061       0.03264242       0.00000000
