10
Lattice="16.28999089631971 0.0 0.0 0.0 16.28999089631971 0.0 0.0 0.0 34.32429715621058" Properties=species:S:1:pos:R:3:initial_magmoms:R:1 pbc="T T T"
Si       1.35676152      -1.35720299       1.35738941       0.00000000
Si       1.35650088       1.35849803      -1.35711482       0.00000000
Si      -1.35826020       1.35791159       1.35721779       0.00000000
Si      -1.35769005      -1.35924894      -1.35745806       0.00000000
Si       0.00146610      -2.71725086      -2.71065991       0.00000000
Si       2.71417464      -2.71474220       0.00020595       0.00000000
Si       2.71381626       0.00082264       2.71515640       0.00000000
Si      -0.00177561      -2.71454672       2.71471018       0.00000000
Si       0.00255753       2.71643243      -2.71289099       0.00000000
Si       2.71450044       2.71530842       0.00044622       0.00000000
