10
Lattice="16.28999089631971 0.0 0.0 0.0 16.28999089631971 0.0 0.0 0.0 34.32429715621058" Properties=species:S:1:pos:R:3:initial_magmoms:R:1 pbc="T T T"
Si      -1.34097651      -1.35287509       1.38072995       0.00000000
Si       1.35851011      -1.35701275      -1.35958617       0.00000000
Si      -1.35710361       1.35970869      -1.35859076       0.00000000
Si       1.34892344       1.36665800       1.37530671       0.00000000
Si       2.71685339      -2.70958774      -0.00154459       0.00000000
Si       0.00092755      -2.71330186      -2.71632342       0.00000000
Si      -2.71072116       2.71907824       0.00030892       0.00000000
Si      -2.71661814      -2.71369282       0.00041189       0.00000000
Si      -2.71415835       0.00168306      -2.71635775       0.00000000
Si       2.71475198       2.71718860       0.00264297       0.00000000
