10
Lattice="16.28999089631971 0.0 0.0 0.0 16.28999089631971 0.0 0.0 0.0 34.32429715621058" Properties=species:S:1:pos:R:3:initial_magmoms:R:1 pbc="T T T"
Si       1.62922806      -0.48162037       1.61722449       0.00000000
Si       1.23689970      -0.55215932      -1.94375171       0.00000000
Si      -0.41803398       2.32992612      -0.10571889       0.00000000
Si      -1.88662635      -1.33025606       0.68936957       0.00000000
Si      -0.84453876       2.46075111      -2.40585998       0.00000000
Si       0.35015355      -0.30418154       3.59231430       0.00000000
Si       0.77528997       1.18495089      -3.41643650       0.00000000
Si      -1.47833379      -1.64302194       3.00814876       0.00000000
Si       1.98415458      -2.83063904       1.42270859       0.00000000
Si       0.63504936      -3.78161666      -0.23711238       0.00000000
