10
Lattice="16.28999089631971 0.0 0.0 0.0 16.28999089631971 0.0 0.0 0.0 34.32429715621058" Properties=species:S:1:pos:R:3:initial_magmoms:R:1 pbc="T T T"
Si       0.88167996      -2.12784867       0.33974208       0.00000000
Si       1.66629320       0.66437136      -1.50766127       0.00000000
Si       0.35859177       0.93928140       2.11846248       0.00000000
Si      -2.09233647       0.18399555      -1.07115894       0.00000000
Si      -1.29764511      -0.74205837       2.75600233       0.00000000
Si      -0.74477880      -2.96629497       1.77679824       0.00000000
Si       1.06692984      -2.80686474      -1.87335254       0.00000000
Si      -0.16549011       3.16561941       1.64863124       0.00000000
Si      -1.35314514       0.03756474      -3.32197598       0.00000000
Si      -2.49968421       2.52239247      -0.83648359       0.00000000
