10
Lattice="16.28999089631971 0.0 0.0 0.0 16.28999089631971 0.0 0.0 0.0 34.32429715621058" Properties=species:S:1:pos:R:3:initial_magmoms:R:1 pbc="T T T"
Si       2.09233647      -0.18399555       1.07115894       0.00000000
Si      -1.77859107      -1.22989500       0.97000518       0.00000000
Si       0.73919133      -0.14643081      -2.25081704       0.00000000
Si      -0.40734774       2.33839692       0.23467535       0.00000000
Si       1.31857776       2.94327720      -1.18367405       0.00000000
Si      -1.43040861      -0.36774675       3.14774575       0.00000000
Si      -1.34335485       0.27732096      -3.25881924       0.00000000
Si      -3.59152146      -0.03479544       0.05567404       0.00000000
Si       1.57643217      -2.34489663      -2.48394780       0.00000000
Si       2.65623111       1.25659431      -2.36611242       0.00000000
