10
Lattice="16.28999089631971 0.0 0.0 0.0 16.28999089631971 0.0 0.0 0.0 34.32429715621058" Properties=species:S:1:pos:R:3:initial_magmoms:R:1 pbc="T T T"
Si       2.19737017       0.61900371      -0.66015958       0.00000000
Si      -0.55107441       1.71828549       1.58767125       0.00000000
Si      -0.09697437      -2.37926853       0.71017011       0.00000000
Si      -1.33564968       0.27062577      -2.08921816       0.00000000
Si       3.15850787       0.70444476       1.49976668       0.00000000
Si      -3.45528819       0.17275545      -1.05337894       0.00000000
Si       1.56170601       1.96975422       2.75181477       0.00000000
Si      -0.55583109      -2.32580475      -2.86251069       0.00000000
Si      -0.14333571       2.59761969      -2.73015612       0.00000000
Si       0.68802444      -3.56052159      -1.21538972       0.00000000
