10
Lattice="16.28999089631971 0.0 0.0 0.0 16.28999089631971 0.0 0.0 0.0 34.32429715621058" Properties=species:S:1:pos:R:3:initial_magmoms:R:1 pbc="T T T"
Si       0.17791938      -0.47680830      -2.29186893       0.00000000
Si      -0.42798717      -2.03849802       1.17217540       0.00000000
Si      -2.22876522       0.86218083       0.35230478       0.00000000
Si       1.59561106       1.40151015       1.29605186       0.00000000
Si      -1.76564052      -0.35181513       2.35461378       0.00000000
Si       0.95872093       1.63035207      -2.99970498       0.00000000
Si       1.00368133      -3.59526816      -0.71391146       0.00000000
Si      -2.29853529       3.18340809       0.40612531       0.00000000
Si       1.67196717       0.68056362       3.56478620       0.00000000
Si      -1.93486104      -0.72827703      -3.45601244       0.00000000
