10
Lattice="16.28999089631971 0.0 0.0 0.0 16.28999089631971 0.0 0.0 0.0 34.32429715621058" Properties=species:S:1:pos:R:3:initial_magmoms:R:1 pbc="T T T"
Si       1.35607612      -1.35711990       1.36291563       0.00000000
Si      -1.36246302       1.36148562       1.36456320       0.00000000
Si       1.36249402       1.36920708      -1.36922101       0.00000000
Si      -1.38020283      -1.35698958      -1.37779522       0.00000000
Si       2.71347973      -2.71155195       0.00645297       0.00000000
Si      -2.71930599      -2.70940167       0.00394730       0.00000000
Si      -2.71580364       2.71419093       0.01005702       0.00000000
Si       2.71260170       2.72003904       0.00659027       0.00000000
Si       2.71273039       0.00192222       2.72075126       0.00000000
Si      -0.00291591      -2.71340901       2.72081991       0.00000000
