10
Lattice="16.28999089631971 0.0 0.0 0.0 16.28999089631971 0.0 0.0 0.0 34.32429715621058" Properties=species:S:1:pos:R:3:initial_magmoms:R:1 pbc="T T T"
Si      -1.73468952       1.24375779       0.87152872       0.00000000
Si       0.12248451       1.40576184      -1.84558417       0.00000000
Si       2.21004801      -0.07770330       0.95617248       0.00000000
Si      -0.90709236      -2.09846151      -0.78990549       0.00000000
Si       2.65279392      -1.99733319      -0.29361020       0.00000000
Si       0.74489283      -3.27666834       0.43499206       0.00000000
Si      -2.15663310       1.33498179      -2.57137183       0.00000000
Si      -0.57169755       2.88559431       2.09917221       0.00000000
Si       1.56377484       0.49933737      -3.44973109       0.00000000
Si      -2.63900769       0.35541522       2.76149422       0.00000000
