10
Lattice="16.28999089631971 0.0 0.0 0.0 16.28999089631971 0.0 0.0 0.0 34.32429715621058" Properties=species:S:1:pos:R:3:initial_magmoms:R:1 pbc="T T T"
Si       1.37455413      -1.29841074      -1.44652966       0.00000000
Si      -1.31403285       1.44308223      -1.43918426       0.00000000
Si       1.98341243       0.87439833       1.13211893       0.00000000
Si      -1.81121994      -0.98536581       1.36099347       0.00000000
Si      -2.65284279       2.75871150       0.05097161       0.00000000
Si      -2.78985798      -2.63551023      -0.02845486       0.00000000
Si       2.62352798      -2.81290833      -0.04372918       0.00000000
Si       0.03023424      -2.62966212      -2.82022313       0.00000000
Si      -3.44254941       0.96107742       1.48198668       0.00000000
Si      -2.68967448       0.08226450      -2.81950232       0.00000000
