10
Lattice="16.28999089631971 0.0 0.0 0.0 16.28999089631971 0.0 0.0 0.0 34.32429715621058" Properties=species:S:1:pos:R:3:initial_magmoms:R:1 pbc="T T T"
Si       0.90431817       0.88834257      -1.88996551       0.00000000
Si      -1.22288069       1.96553511       0.42857341       0.00000000
Si      -1.82224405      -1.50570099       0.06288215       0.00000000
Si       1.71749868       0.12986388       1.63188097       0.00000000
Si      -2.00749393      -0.82668492       2.27597677       0.00000000
Si       2.06731014       2.53017909      -0.66232201       0.00000000
Si       0.10709698      -0.36471681       3.37143732       0.00000000
Si       0.58040781       3.27942135       1.11914433       0.00000000
Si      -0.89361076       1.18498347      -3.38712354       0.00000000
Si      -2.88917389       1.30116375       1.93623468       0.00000000
