10
Lattice="16.28999089631971 0.0 0.0 0.0 16.28999089631971 0.0 0.0 0.0 34.32429715621058" Properties=species:S:1:pos:R:3:initial_magmoms:R:1 pbc="T T T"
Si      -1.35646416      -1.35809730      -1.35714914       0.00000000
Si       1.35821459       1.35725022      -1.35711482       0.00000000
Si       1.35704171      -1.35855342       1.35742374       0.00000000
Si      -1.35479436       1.36005210       1.35907131       0.00000000
Si      -0.01047447       2.69130348       2.73276477       0.00000000
Si      -0.00005539      -2.71487511      -2.71371477       0.00000000
Si      -2.71497678       2.71368594       0.00017162       0.00000000
Si      -2.71465098      -0.00029322      -2.71426396       0.00000000
Si       2.71357517      -2.71557558       0.00013730       0.00000000
Si       0.00099532       2.71503801      -2.71433261       0.00000000
