10
Lattice="16.28999089631971 0.0 0.0 0.0 16.28999089631971 0.0 0.0 0.0 34.32429715621058" Properties=species:S:1:pos:R:3:initial_magmoms:R:1 pbc="T T T"
Si      -0.54190314       2.22373161       0.29680236       0.00000000
Si      -2.03359473      -1.13510349      -0.06696674       0.00000000
Si       0.69582735       0.00822645      -2.26138893       0.00000000
Si       1.36858806      -0.84276315       1.79591688       0.00000000
Si       2.88619704       0.86882715      -1.92147523       0.00000000
Si       0.85046832      -3.12289074       1.54308397       0.00000000
Si      -1.42864929      -3.19367079       0.81729630       0.00000000
Si      -2.84959504       2.23736634       0.47724529       0.00000000
Si       0.65422269       2.92073184       2.19552057       0.00000000
Si      -3.63039659       0.13020597       1.18508135       0.00000000
