10
Lattice="16.28999089631971 0.0 0.0 0.0 16.28999089631971 0.0 0.0 0.0 34.32429715621058" Properties=species:S:1:pos:R:3:initial_magmoms:R:1 pbc="T T T"
Si      -0.76171781       1.58382783       1.60013098       0.00000000
Si       0.02769137      -2.24213931       0.99059977       0.00000000
Si       2.38836812       0.22441104      -0.67677255       0.00000000
Si      -2.31301451      -0.26352333      -1.07939678       0.00000000
Si      -2.97872165       0.94294665       2.07977898       0.00000000
Si       0.17282876       1.21577157       3.69473806       0.00000000
Si       1.21828675      -3.66700932      -0.56786149       0.00000000
Si      -2.10445364       1.01569779      -3.13408468       0.00000000
Si       0.98882906      -2.15669826       3.15052602       0.00000000
Si      -2.16967880      -2.86114302       1.65075935       0.00000000
