10
Lattice="16.28999089631971 0.0 0.0 0.0 16.28999089631971 0.0 0.0 0.0 34.32429715621058" Properties=species:S:1:pos:R:3:initial_magmoms:R:1 pbc="T T T"
Si      -2.31760178       0.15741027       0.48781718       0.00000000
Si       0.29905182       1.21195971      -2.02355575       0.00000000
Si       0.44843112      -2.24336106      -1.11962487       0.00000000
Si       1.11609306       1.26959373       1.98116521       0.00000000
Si      -1.88990716      -1.10260494       2.45119729       0.00000000
Si      -0.68392262       0.61805889       3.50304503       0.00000000
Si      -0.17705601      -2.88442143       2.31186219       0.00000000
Si       3.00806253      -0.39483702       2.12100248       0.00000000
Si      -1.00713577      -3.67385112       0.11007808       0.00000000
Si      -0.95095807       0.15651432      -3.70668292       0.00000000
