10
Lattice="16.28999089631971 0.0 0.0 0.0 16.28999089631971 0.0 0.0 0.0 34.32429715621058" Properties=species:S:1:pos:R:3:initial_magmoms:R:1 pbc="T T T"
Si       1.30217699      -1.36148562       1.39364276       0.00000000
Si      -1.20598454      -1.72066383      -1.05184774       0.00000000
Si      -1.41055661       1.36614456       1.37666252       0.00000000
Si       1.80001568       0.65153484      -1.52187982       0.00000000
Si      -1.63367916      -0.46064862      -3.01522785       0.00000000
Si       0.68392262      -0.61805889      -3.50304503       0.00000000
Si       2.59483736       2.62293435      -0.07808439       0.00000000
Si       0.50686661      -3.50248032      -1.19118284       0.00000000
Si       2.58705074      -2.69796609      -0.09703484       0.00000000
Si       2.65300895      -0.00272043       2.75110082       0.00000000
