10
Lattice="10.86 0.0 0.0 0.0 10.86 0.0 0.0 0.0 10.86" Properties=species:S:1:pos:R:3:initial_magmoms:R:1 pbc="T T T"
Si      -1.09473144      -0.86871312      -1.66443618       0.00000000
Si       1.54907040      -1.13509806       1.25634996       0.00000000
Si       1.60730172       1.73571036      -1.49208798       0.00000000
Si      -2.53385520      -2.32944828      -0.12242478       0.00000000
Si       0.18114480      -2.32944828       2.59257522       0.00000000
Si       0.18114480      -2.32944828      -2.83742478       0.00000000
Si       2.89614480      -2.32944828      -0.12242478       0.00000000
Si      -2.31733938       2.97499926      -0.02359878       0.00000000
Si      -2.94032328      -1.13576052       2.07316314       0.00000000
Si      -2.53385520       0.38555172      -2.83742478       0.00000000
