10
Lattice="10.86 0.0 0.0 0.0 10.86 0.0 0.0 0.0 10.86" Properties=species:S:1:pos:R:3:initial_magmoms:R:1 pbc="T T T"
Si       2.17417200       0.61715208      -1.17774528       0.00000000
Si       1.90266114      -0.09252720       1.81781196       0.00000000
Si      -2.14836864      -1.48616928       0.41171346       0.00000000
Si       0.56663136      -1.48616928      -2.30328654       0.00000000
Si      -0.47967534       2.28920112       1.81645446       0.00000000
Si      -2.14836864       1.22883072      -2.30328654       0.00000000
Si      -0.79086864      -2.84366928       1.76921346       0.00000000
Si       0.56663136      -1.48616928       3.12671346       0.00000000
Si       1.92413136      -2.84366928      -0.94578654       0.00000000
Si       3.28163136      -1.48616928       0.41171346       0.00000000
