10
Lattice="10.86 0.0 0.0 0.0 10.86 0.0 0.0 0.0 10.86" Properties=species:S:1:pos:R:3:initial_magmoms:R:1 pbc="T T T"
Si       1.35750000       1.35750000       1.35750000       0.00000000
Si      -1.35750000      -1.35750000       1.35750000       0.00000000
Si      -1.35750000       1.35750000      -1.35750000       0.00000000
Si       1.35750000      -1.35750000      -1.35750000       0.00000000
Si      -2.40380670      -0.29712960      -2.66775900       0.00000000
Si       3.03160158      -0.44327262      -2.19833550       0.00000000
Si      -0.02147022      -2.67885792      -2.66640150       0.00000000
Si       0.17510664       2.76106812       2.59588752       0.00000000
Si       0.01229352       2.80076142      -2.57652414       0.00000000
Si      -2.77364400      -0.07899564       2.60949510       0.00000000
