10
Lattice="10.86 0.0 0.0 0.0 10.86 0.0 0.0 0.0 10.86" Properties=species:S:1:pos:R:3:initial_magmoms:R:1 pbc="T T T"
Si      -1.39413078      -1.45995324       1.22342244       0.00000000
Si      -1.39413078       1.25504676      -1.49157756       0.00000000
Si       0.21340986       0.64336812       2.34896370       0.00000000
Si       1.32086922      -1.45995324      -1.49157756       0.00000000
Si       2.48366028      -0.33083904       2.64008772       0.00000000
Si      -2.81027478       2.53355112      -0.23958246       0.00000000
Si      -0.03663078      -2.81745324       2.58092244       0.00000000
Si      -0.03663078       2.61254676      -2.84907756       0.00000000
Si       2.67836922      -2.81745324      -0.13407756       0.00000000
Si       2.67836922      -0.10245324      -2.84907756       0.00000000
