10
Lattice="10.86 0.0 0.0 0.0 10.86 0.0 0.0 0.0 10.86" Properties=species:S:1:pos:R:3:initial_magmoms:R:1 pbc="T T T"
Si       1.29531564      -1.31172510      -1.35189624       0.00000000
Si       1.29531564       1.40327490       1.36310376       0.00000000
Si      -1.41968436      -1.31172510       1.36310376       0.00000000
Si       2.40818328       2.83645824      -0.16336698       0.00000000
Si       2.77115706      -0.10371300      -2.50935504       0.00000000
Si       2.65281564      -2.66922510       0.00560376       0.00000000
Si       2.65281564       0.04577490       2.72060376       0.00000000
Si      -0.06218436      -2.66922510      -2.70939624       0.00000000
Si      -0.06218436      -2.66922510       2.72060376       0.00000000
Si      -2.77718436      -2.66922510       0.00560376       0.00000000
