10
Lattice="10.86 0.0 0.0 0.0 10.86 0.0 0.0 0.0 10.86" Properties=species:S:1:pos:R:3:initial_magmoms:R:1 pbc="T T T"
Si      -1.52334306       1.27494228      -1.20348348       0.00000000
Si       2.31683982      -0.16633176       2.65191426       0.00000000
Si       2.50580382       2.47964208       0.04701294       0.00000000
Si      -0.17494374       2.66552184      -2.52883788       0.00000000
Si      -0.25728426       2.51034330       2.84275704       0.00000000
Si      -2.76975612      -0.21767784      -2.63461428       0.00000000
Si      -2.94243012       2.48132538       0.10884978       0.00000000
Si       2.71090578      -0.06733200      -2.78984712       0.00000000
Si      -0.19491528      -2.95671102      -2.66689020       0.00000000
Si      -2.92287126      -0.19457862       2.81988588       0.00000000
