10
Lattice="10.86 0.0 0.0 0.0 10.86 0.0 0.0 0.0 10.86" Properties=species:S:1:pos:R:3:initial_magmoms:R:1 pbc="T T T"
Si      -1.11286764      -1.43318334       1.52647074       0.00000000
Si       1.60213236      -1.43318334      -1.18852926       0.00000000
Si       1.60213236       1.28181666       1.52647074       0.00000000
Si      -2.31683982       0.16633176      -2.65191426       0.00000000
Si       0.18896400       2.64597384      -2.60490132       0.00000000
Si      -2.57412408       2.67667506       0.19084278       0.00000000
Si      -2.40818328      -2.83645824       0.16336698       0.00000000
Si       0.36297378      -2.94017124      -2.34598806       0.00000000
Si      -2.47036764      -0.07568334       2.88397074       0.00000000
Si       2.95963236      -0.07568334      -2.54602926       0.00000000
