10
Lattice="16.28999089631971 0.0 0.0 0.0 16.28999089631971 0.0 0.0 0.0 34.31052061344573" Properties=species:S:1:pos:R:3:initial_magmoms:R:1 pbc="T T T"
Si      -1.62443880      -0.60184612      -1.67257019       0.00000000
Si       1.84050936      -1.58001175      -0.08303151       0.00000000
Si      -1.25475354      -0.07089734       2.19978595       0.00000000
Si       1.09496493       2.22258642       0.59446441       0.00000000
Si       0.77652801       1.81330017      -1.68499061       0.00000000
Si      -2.65484646      -2.29462147      -0.41725047       0.00000000
Si      -3.39559837      -0.46733404       0.93980000       0.00000000
Si      -0.32086413      -1.93861981      -3.02605237       0.00000000
Si       0.85084299      -3.26594530      -1.44739012       0.00000000
Si       2.01521961      -2.21476789       2.22260246       0.00000000
