10
Lattice="16.28999089631971 0.0 0.0 0.0 16.28999089631971 0.0 0.0 0.0 34.31052061344573" Properties=species:S:1:pos:R:3:initial_magmoms:R:1 pbc="T T T"
Si      -1.35760860      -1.35571896      -1.35842289       0.00000000
Si       1.35832536       1.35940050      -1.35814841       0.00000000
Si       1.36456443      -1.35632169       1.35650150       0.00000000
Si      -1.35884664       1.36140417       1.36030997       0.00000000
Si       2.71324611      -2.71435383      -0.00048035       0.00000000
Si       0.00009774      -2.71262709      -2.71526750       0.00000000
Si      -2.71416487       0.00001629      -2.71537043       0.00000000
Si      -2.71503475      -2.71533123      -0.00010293       0.00000000
Si       2.71505430       0.00156384      -2.71547336       0.00000000
Si       2.71590138       2.71645524      -0.00041173       0.00000000
