10
Lattice="16.28999089631971 0.0 0.0 0.0 16.28999089631971 0.0 0.0 0.0 34.31052061344573" Properties=species:S:1:pos:R:3:initial_magmoms:R:1 pbc="T T T"
Si       0.77154327       1.81159461       1.33989520       0.00000000
Si       1.37499003      -1.33561710      -1.41647632       0.00000000
Si      -1.36334268       1.36322865      -1.41832909       0.00000000
Si      -0.48997062      -1.83228291       1.58003467       0.00000000
Si       2.58737328       2.60444520      -0.07719871       0.00000000
Si       0.63747657      -1.07531919       3.51103185       0.00000000
Si      -2.70192456       2.66056425       0.08574204       0.00000000
Si       2.62384659      -2.82546792       0.01355266       0.00000000
Si       0.52988112       1.24807464       3.62954045       0.00000000
Si       0.00627165      -2.69377956      -2.79016741       0.00000000
