10
Lattice="16.28999089631971 0.0 0.0 0.0 16.28999089631971 0.0 0.0 0.0 34.31052061344573" Properties=species:S:1:pos:R:3:initial_magmoms:R:1 pbc="T T T"
Si       0.42586947      -1.40375817      -1.76390485       0.00000000
Si       0.82329660       2.16456633      -0.30279051       0.00000000
Si       1.15095366      -0.81837702       1.89394180       0.00000000
Si      -2.39847444      -0.04670343      -0.00301933       0.00000000
Si      -0.16636977       2.74598901       1.71048334       0.00000000
Si      -0.01114236      -3.22994862      -0.36993624       0.00000000
Si      -1.04596461      -0.17832663      -3.16555902       0.00000000
Si      -0.18327879      -2.73657339       1.97168948       0.00000000
Si       0.49829481       1.00644507       3.21729932       0.00000000
Si       2.66346387      -0.94309326      -2.20678530       0.00000000
