10
Lattice="16.28999089631971 0.0 0.0 0.0 16.28999089631971 0.0 0.0 0.0 34.31052061344573" Properties=species:S:1:pos:R:3:initial_magmoms:R:1 pbc="T T T"
Si      -2.14097515       0.90140715      -0.12859590       0.00000000
Si       1.43435079       1.14062580       1.43569023       0.00000000
Si      -0.25189227      -2.06775128       1.09941263       0.00000000
Si       1.12397742       0.23078043      -2.06570036       0.00000000
Si       2.09448675      -2.33843669       1.03257569       0.00000000
Si      -0.17311383       2.28797937      -2.61014000       0.00000000
Si       1.87136262       2.96681625       0.04172162       0.00000000
Si      -3.36589586      -1.12025516       0.13058591       0.00000000
Si       0.21833487      -1.61234999      -3.31299141       0.00000000
Si       3.01351968      -0.51115577       2.10797094       0.00000000
