10
Lattice="16.28999089631971 0.0 0.0 0.0 16.28999089631971 0.0 0.0 0.0 34.31052061344573" Properties=species:S:1:pos:R:3:initial_magmoms:R:1 pbc="T T T"
Si       2.14097515      -0.90140715       0.12859590       0.00000000
Si      -1.22492070      -2.02166230       0.25918182       0.00000000
Si      -0.38440165       1.38365631      -1.89672095       0.00000000
Si      -0.20981520       1.53082017       1.81790964       0.00000000
Si       1.96786132       1.38657222      -2.48154410       0.00000000
Si      -2.25930312       2.49872310       1.14734445       0.00000000
Si      -1.32230232       3.31700238      -0.89210835       0.00000000
Si      -3.34236006      -1.50129292      -0.60774259       0.00000000
Si       1.88908288      -2.96915843       1.22800853       0.00000000
Si      -3.72988287       0.58815045       0.69300428       0.00000000
