10
Lattice="16.28999089631971 0.0 0.0 0.0 16.28999089631971 0.0 0.0 0.0 34.31052061344573" Properties=species:S:1:pos:R:3:initial_magmoms:R:1 pbc="T T T"
Si       1.35653346       1.35700587      -1.35632995       0.00000000
Si       1.35754344      -1.35747828       1.35763375       0.00000000
Si      -1.35796698       1.35738054       1.35753082       0.00000000
Si      -1.35804843      -1.35946566      -1.35650150       0.00000000
Si       2.71101438       0.00174303      -2.71550767       0.00000000
Si      -2.71021780       0.00029322      -2.71887010       0.00000000
Si       2.71435383       2.71482624       0.00017155       0.00000000
Si       2.71427238      -2.71531494       0.00030879       0.00000000
Si      -2.71495004       2.71495656       0.00044604       0.00000000
Si      -2.71631840       0.00037467       2.71365490       0.00000000
