10
Lattice="16.28999089631971 0.0 0.0 0.0 16.28999089631971 0.0 0.0 0.0 34.31052061344573" Properties=species:S:1:pos:R:3:initial_magmoms:R:1 pbc="T T T"
Si       0.90564255       1.84313042       1.24729105       0.00000000
Si      -2.14084483      -0.39643670      -1.25998595       0.00000000
Si       1.25475354       0.07089734      -2.19978595       0.00000000
Si      -0.62695323      -1.85630319       1.63301014       0.00000000
Si       2.34971847       2.29348376      -1.60532154       0.00000000
Si      -0.21833487       1.61234999       3.31299141       0.00000000
Si      -1.40009292      -2.22372414      -2.61703642       0.00000000
Si       3.23437950       1.38508820       1.23744393       0.00000000
Si      -2.90764771      -1.31778837       2.03955573       0.00000000
Si       3.26997315      -2.14387056       0.02281651       0.00000000
