10
Lattice="16.28999089631971 0.0 0.0 0.0 16.28999089631971 0.0 0.0 0.0 34.31052061344573" Properties=species:S:1:pos:R:3:initial_magmoms:R:1 pbc="T T T"
Si       1.52203986      -1.19104335       1.28057228       0.00000000
Si      -0.33273954       2.22518142       0.67893696       0.00000000
Si      -2.04612174      -1.08400176       0.55977646       0.00000000
Si       0.65565621       0.17589942      -2.29263027       0.00000000
Si      -3.08718306      -0.22102272      -1.38700357       0.00000000
Si      -0.37646190       2.19748842      -2.78450617       0.00000000
Si      -0.26849178      -1.72861335      -3.13234642       0.00000000
Si       1.00839987       2.22682671       2.63326531       0.00000000
Si       1.38422646      -0.07724718       3.37053019       0.00000000
Si       3.61848141      -0.69333498       0.33449345       0.00000000
