10
Lattice="16.28999089631971 0.0 0.0 0.0 16.28999089631971 0.0 0.0 0.0 34.31052061344573" Properties=species:S:1:pos:R:3:initial_magmoms:R:1 pbc="T T T"
Si      -1.79255160       1.59542631      -0.36671105       0.00000000
Si       1.73498274       0.85967217      -1.54081772       0.00000000
Si       1.62311931       0.08487090       1.87857067       0.00000000
Si      -1.12282083      -2.20454199      -0.59161664       0.00000000
Si      -0.80738127      -2.57852781       1.79118173       0.00000000
Si      -0.09883143      -0.74575620       3.24457074       0.00000000
Si      -1.40452380       3.07141434       1.73508400       0.00000000
Si      -3.03499479       0.66371976      -2.51781034       0.00000000
Si       3.98077101       0.38672460      -0.78770137       0.00000000
Si       1.87279614      -0.25412400      -3.63077563       0.00000000
