10
Lattice="16.28999089631971 0.0 0.0 0.0 16.28999089631971 0.0 0.0 0.0 34.31052061344573" Properties=species:S:1:pos:R:3:initial_magmoms:R:1 pbc="T T T"
Si       0.13781340      -1.11379617      -2.08995791       0.00000000
Si       2.24578827      -0.47294757       0.75311635       0.00000000
Si      -0.37582659       2.30407389      -0.73726488       0.00000000
Si      -1.73498274      -0.85967217       1.54081772       0.00000000
Si      -0.11186343      -0.77480127       3.41938840       0.00000000
Si      -1.38422646       0.07724718      -3.37053019       0.00000000
Si       2.92537449       1.75265739       1.50678167       0.00000000
Si      -3.52753434       0.73575414       1.17410667       0.00000000
Si       2.23425495      -0.61608780      -3.03603673       0.00000000
Si       1.65511287       2.94850629      -1.77872700       0.00000000
