10
Lattice="16.28999089631971 0.0 0.0 0.0 16.28999089631971 0.0 0.0 0.0 34.31052061344573" Properties=species:S:1:pos:R:3:initial_magmoms:R:1 pbc="T T T"
Si       1.35205371      -1.35537687      -1.35533494       0.00000000
Si      -1.34662914      -1.36759437       1.34967370       0.00000000
Si       1.35612621       1.34330828       1.37379401       0.00000000
Si      -1.36065483       1.36010164      -1.35427132       0.00000000
Si      -0.24923700       2.38432562       2.69073546       0.00000000
Si      -2.65020381      -0.03082068       2.70315588       0.00000000
Si       2.70863604      -2.70948312       0.00634745       0.00000000
Si       2.71059084       0.00203264      -2.71135610       0.00000000
Si      -0.00345348      -2.71236645      -2.71190506       0.00000000
Si      -0.00337203       2.71657646      -2.71214524       0.00000000
