10
Lattice="16.28999089631971 0.0 0.0 0.0 16.28999089631971 0.0 0.0 0.0 34.31052061344573" Properties=species:S:1:pos:R:3:initial_magmoms:R:1 pbc="T T T"
Si      -1.23619923       1.97243492      -0.61086485       0.00000000
Si      -1.15121430      -1.28671452      -1.69909224       0.00000000
Si       1.35540945       1.24167267       1.59403337       0.00000000
Si      -1.10749194      -1.25902152       1.76435089       0.00000000
Si       2.09233647      -0.83393397      -1.04221696       0.00000000
Si      -0.11909619      -3.30830352      -1.20721634       0.00000000
Si       2.26458693      -0.61294383       2.67721711       0.00000000
Si      -0.32749416       2.33246803       2.82677675       0.00000000
Si      -0.77475240      -3.48420294       1.08541393       0.00000000
Si       3.10813200      -1.88543718       0.84674981       0.00000000
