10
Lattice="16.28999089631971 0.0 0.0 0.0 16.28999089631971 0.0 0.0 0.0 34.31052061344573" Properties=species:S:1:pos:R:3:initial_magmoms:R:1 pbc="T T T"
Si      -1.53430623       1.16172135      -1.34060200       0.00000000
Si       1.34009685       1.37300265       1.37661091       0.00000000
Si      -1.36800162      -1.34725630       1.38378181       0.00000000
Si       1.47571110      -1.37962453      -1.47959742       0.00000000
Si       2.71023246      -2.70269738       0.02334146       0.00000000
Si      -2.72060919      -2.70084032       0.03036826       0.00000000
Si      -0.01399311      -2.70118213       2.74055780       0.00000000
Si       2.70361872       0.01176138       2.73887658       0.00000000
Si       2.70480789       2.74325229      -0.01354237       0.00000000
Si      -2.72549619       2.73215880      -0.00747627       0.00000000
