10
Lattice="16.28999089631971 0.0 0.0 0.0 16.28999089631971 0.0 0.0 0.0 34.31052061344573" Properties=species:S:1:pos:R:3:initial_magmoms:R:1 pbc="T T T"
Si      -1.90619064       0.65371770      -1.19235988       0.00000000
Si       0.29773233      -2.25406685      -0.73379951       0.00000000
Si      -0.12297321      -0.70081209       2.29098336       0.00000000
Si       1.66801455       1.73178990      -0.00528382       0.00000000
Si       2.25385182      -2.88985871       0.39433103       0.00000000
Si      -1.01577924       1.35365013      -3.28588608       0.00000000
Si       3.56423571       0.61538733       0.85985644       0.00000000
Si       1.34213310       0.91786005      -3.36541792       0.00000000
Si      -2.74594014       2.55331089      -0.10571077       0.00000000
Si      -1.45098288      -3.44232854       0.37501420       0.00000000
