10
Lattice="16.28999089631971 0.0 0.0 0.0 16.28999089631971 0.0 0.0 0.0 34.31052061344573" Properties=species:S:1:pos:R:3:initial_magmoms:R:1 pbc="T T T"
Si      -1.15701354       1.99185975      -0.43828284       0.00000000
Si       0.63027639      -1.19734758      -1.92338024       0.00000000
Si      -1.53704295      -1.01294478       1.48914605       0.00000000
Si       1.81739385       0.47768796       1.46046244       0.00000000
Si      -0.98590338      -2.81944714      -1.82247294       0.00000000
Si      -0.32896026       3.25536102       1.36751518       0.00000000
Si       1.97653086       2.81391831       1.17589082       0.00000000
Si      -0.67869027      -3.04698586       2.14526650       0.00000000
Si      -0.69753780       2.91993363      -2.51688396       0.00000000
Si      -1.81723095       0.21098808       3.49212674       0.00000000
