10
Lattice="16.28999089631971 0.0 0.0 0.0 16.28999089631971 0.0 0.0 0.0 34.31052061344573" Properties=species:S:1:pos:R:3:initial_magmoms:R:1 pbc="T T T"
Si      -0.85835268       2.03404108      -0.65612045       0.00000000
Si      -1.74518028      -1.04265841       1.09289362       0.00000000
Si       1.72955817       0.39219967       1.57107962       0.00000000
Si       0.20730654      -1.14280933      -2.06748451       0.00000000
Si      -1.00825326      -3.11826505      -1.54335670       0.00000000
Si      -2.90276397       1.44618385      -1.69456325       0.00000000
Si      -1.13854068       3.25797394       1.34686024       0.00000000
Si      -0.83600280      -2.89727491       2.17607736       0.00000000
Si       0.67869027       3.04698586      -2.14526650       0.00000000
Si       2.11095594       2.71585903       1.63105444       0.00000000
