10
Lattice="16.28999089631971 0.0 0.0 0.0 16.28999089631971 0.0 0.0 0.0 34.31052061344573" Properties=species:S:1:pos:R:3:initial_magmoms:R:1 pbc="T T T"
Si       0.72739737       0.78537348      -2.07595921       0.00000000
Si       1.89622116      -1.11640257       0.86514026       0.00000000
Si      -1.66801455      -1.73178990       0.00528382       0.00000000
Si      -0.80312958       1.92878487       1.25082504       0.00000000
Si      -0.32588145      -0.81392985      -3.36013409       0.00000000
Si      -0.63001575       2.61270423      -2.41141336       0.00000000
Si       3.36680091       0.79417008       1.31948043       0.00000000
Si      -1.79098776      -2.43260199       2.29626719       0.00000000
Si      -0.90601722       3.72827601      -0.34351712       0.00000000
Si      -3.57420519      -1.07807220      -1.18707606       0.00000000
