10
Lattice="16.28999089631971 0.0 0.0 0.0 16.28999089631971 0.0 0.0 0.0 34.31052061344573" Properties=species:S:1:pos:R:3:initial_magmoms:R:1 pbc="T T T"
Si      -1.05111225       2.06415477      -0.09857418       0.00000000
Si      -0.82805328      -1.26350127      -1.80579802       0.00000000
Si       2.30549112      -0.44144271      -0.19162436       0.00000000
Si      -1.18846953      -0.69103809       1.92674267       0.00000000
Si       2.14635411      -2.77767306       0.09294725       0.00000000
Si       0.32896026      -3.25536102      -1.36751518       0.00000000
Si      -0.17365140       3.06304128      -1.98290903       0.00000000
Si      -3.17624049      -1.07386938      -1.58686247       0.00000000
Si      -3.04100091       0.74254707       1.99594703       0.00000000
Si       3.19288887       0.10790496       1.92046384       0.00000000
