10
Lattice="16.28999089631971 0.0 0.0 0.0 16.28999089631971 0.0 0.0 0.0 34.31052061344573" Properties=species:S:1:pos:R:3:initial_magmoms:R:1 pbc="T T T"
Si       1.84344156       1.34379468      -0.36420638       0.00000000
Si      -1.09944468      -0.20264760      -2.08371339       0.00000000
Si       0.28057896      -2.34549936       0.11596962       0.00000000
Si      -0.95558769       0.27815175       2.20469236       0.00000000
Si      -1.39924584      -2.55598245      -1.88584451       0.00000000
Si       1.00266579       3.56366556      -0.50065940       0.00000000
Si      -2.95197606       1.23093756      -2.01450903       0.00000000
Si      -1.80533925      -1.92906180       2.74600974       0.00000000
Si       3.28191372       0.59629545      -2.08999222       0.00000000
Si       1.85025078      -3.09809736      -1.60165031       0.00000000
