10
Lattice="16.28999089631971 0.0 0.0 0.0 16.28999089631971 0.0 0.0 0.0 34.31052061344573" Properties=species:S:1:pos:R:3:initial_magmoms:R:1 pbc="T T T"
Si      -0.11852604       1.47321873      -1.83685184       0.00000000
Si       1.16895411      -1.96134858      -0.63327242       0.00000000
Si       1.19374749       1.61896536       1.26486011       0.00000000
Si      -1.78114860      -1.16603820       1.12325022       0.00000000
Si       2.40953535       0.20864232       2.66535801       0.00000000
Si      -0.33225084      -2.50150869       2.63690085       0.00000000
Si      -2.36718135       1.96623558      -2.10622389       0.00000000
Si       1.38880395      -3.32540802       1.29337903       0.00000000
Si      -0.28815381       2.89830051       2.64453838       0.00000000
Si       3.35380149      -1.54525311       1.46846228       0.00000000
