10
Lattice="16.28999089631971 0.0 0.0 0.0 16.28999089631971 0.0 0.0 0.0 34.31052061344573" Properties=species:S:1:pos:R:3:initial_magmoms:R:1 pbc="T T T"
Si       1.35676152       1.35715248       1.35636426       0.00000000
Si       1.35702216      -1.35777150      -1.35677599       0.00000000
Si      -1.35762489       1.35790182      -1.35691323       0.00000000
Si      -1.35738054      -1.35858600       1.35825134       0.00000000
Si       0.00247608       2.71109583       2.71351766       0.00000000
Si       0.00042354       2.71425609      -2.71183644       0.00000000
Si      -0.00017919      -2.71445157      -2.71235110       0.00000000
Si       2.71464705       2.71402803       0.00017155       0.00000000
Si      -2.71510317       2.71422351      -0.00013724       0.00000000
Si       2.71484253      -2.71564074       0.00061759       0.00000000
