10
Lattice="16.28999089631971 0.0 0.0 0.0 16.28999089631971 0.0 0.0 0.0 34.31052061344573" Properties=species:S:1:pos:R:3:initial_magmoms:R:1 pbc="T T T"
Si      -2.24865531       0.49301685      -0.26937205       0.00000000
Si       0.11852604      -1.47321873       1.83685184       0.00000000
Si       0.45463761      -1.08295920      -2.12076877       0.00000000
Si       0.87938307       2.31327774       0.47149544       0.00000000
Si      -1.65954375       1.91915748      -2.16063762       0.00000000
Si       1.31227353       0.14574663       3.10171195       0.00000000
Si       0.26192691       0.93744063      -3.22995991       0.00000000
Si      -2.92824153      -1.73258811      -1.02303736       0.00000000
Si       2.78032833       1.56636495       1.65277301       0.00000000
Si       1.28748015      -3.43456731       1.20357943       0.00000000
