10
Lattice="16.28999089631971 0.0 0.0 0.0 16.28999089631971 0.0 0.0 0.0 34.31052061344573" Properties=species:S:1:pos:R:3:initial_magmoms:R:1 pbc="T T T"
Si       1.35659862      -1.35505107       1.36199119       0.00000000
Si       1.36710567       1.34840475      -1.35978845       0.00000000
Si      -1.35912357       1.35979146       1.35886893       0.00000000
Si      -1.36803420      -1.34659656      -1.37897490       0.00000000
Si      -0.01128897       2.70018153      -2.69159666       0.00000000
Si       2.70332550      -2.70321147       0.00868057       0.00000000
Si      -0.00144981      -2.71140534       2.71691440       0.00000000
Si       2.71251306       0.00288333       2.71712027       0.00000000
Si       2.71313208       2.71743264       0.00030879       0.00000000
Si      -2.72028339      -2.71029762       0.00078914       0.00000000
