10
Lattice="16.28999089631971 0.0 0.0 0.0 16.28999089631971 0.0 0.0 0.0 34.31052061344573" Properties=species:S:1:pos:R:3:initial_magmoms:R:1 pbc="T T T"
Si       1.35559353       1.35917244      -1.35550993       0.00000000
Si      -1.35702402       1.35581670       1.36037859       0.00000000
Si       1.35766236      -1.35992178       1.35759944       0.00000000
Si      -1.36730345      -1.36073628      -1.36111284       0.00000000
Si       2.67179295      -0.01581759      -2.69887392       0.00000000
Si       0.01960176      -2.66737673      -2.73108123       0.00000000
Si      -2.70311603       2.70164763       0.00164691       0.00000000
Si       0.00159479       2.71088406       2.71537043       0.00000000
Si      -2.71261310      -0.00231318       2.71609095       0.00000000
Si       2.71670448       2.71200807       0.00044604       0.00000000
