10
Lattice="16.28999089631971 0.0 0.0 0.0 16.28999089631971 0.0 0.0 0.0 34.31052061344573" Properties=species:S:1:pos:R:3:initial_magmoms:R:1 pbc="T T T"
Si      -1.34226342      -1.35167904      -1.38724374       0.00000000
Si       1.37958381       1.35852062      -1.38590563       0.00000000
Si       1.28549277      -1.41574761       1.46073692       0.00000000
Si      -1.49276673       1.30049586       1.52012847       0.00000000
Si      -2.69477325       2.70111236      -0.01979718       0.00000000
Si      -2.71940373      -2.69755884      -0.00799436       0.00000000
Si       2.71801908      -2.70935280      -0.01657199       0.00000000
Si       2.73048093       2.71354163      -0.01770424       0.00000000
Si      -2.69884575       0.00242721      -2.74892614       0.00000000
Si       0.01827738      -2.71420722      -2.74697044       0.00000000
