10
Lattice="16.28999089631971 0.0 0.0 0.0 16.28999089631971 0.0 0.0 0.0 34.31052061344573" Properties=species:S:1:pos:R:3:initial_magmoms:R:1 pbc="T T T"
Si       1.69156989       1.25853282       1.06421001       0.00000000
Si      -1.28549277       1.41574761      -1.46073692       0.00000000
Si       1.43252631      -1.29360519      -1.47730891       0.00000000
Si      -0.71933382      -0.90704349       2.16894077       0.00000000
Si      -2.59698438      -2.58022197      -0.09184932       0.00000000
Si       1.42674336      -0.43121259       3.35766373       0.00000000
Si      -2.62775619       0.06406857      -2.84798067       0.00000000
Si      -2.77825950       2.71624347       0.05939154       0.00000000
Si       2.81132820      -2.69519679      -0.15244173       0.00000000
Si       0.09254349      -2.65792527      -2.85268121       0.00000000
