10
Lattice="16.28999089631971 0.0 0.0 0.0 16.28999089631971 0.0 0.0 0.0 34.31052061344573" Properties=species:S:1:pos:R:3:initial_magmoms:R:1 pbc="T T T"
Si      -0.28817010       1.11941689       2.01687646       0.00000000
Si       0.27331362      -2.25153864       0.54766484       0.00000000
Si      -2.06340543       0.16456158      -1.13358592       0.00000000
Si       1.74871521       1.18826169      -1.10881371       0.00000000
Si      -3.30942753       0.22972158       0.95300955       0.00000000
Si       0.85515984      -3.02863680      -1.55608591       0.00000000
Si       1.32800967       2.74151645       1.91596916       0.00000000
Si      -1.95119991       2.34089648      -2.15511363       0.00000000
Si       3.70483470       0.55246983       0.01931683       0.00000000
Si      -2.39039460       2.05700250       2.02840480       0.00000000
