10
Lattice="16.28999089631971 0.0 0.0 0.0 16.28999089631971 0.0 0.0 0.0 34.31052061344573" Properties=species:S:1:pos:R:3:initial_magmoms:R:1 pbc="T T T"
Si      -2.31572124       0.27798885      -0.05156874       0.00000000
Si       0.63604305       1.52345709       1.69552394       0.00000000
Si       0.32869962      -2.07834336       1.10600025       0.00000000
Si       0.68719365       0.55754154      -2.25156055       0.00000000
Si       2.52120330      -1.04767506      -2.24229671       0.00000000
Si      -0.92105289       0.82608219       3.31072692       0.00000000
Si       0.09884772      -1.34247519       3.36950087       0.00000000
Si      -2.89756746       1.05508701       2.05218201       0.00000000
Si      -2.68644906       1.71740583      -1.93260977       0.00000000
Si      -1.45888353       0.08171064      -3.44028351       0.00000000
