10
Lattice="16.28999089631971 0.0 0.0 0.0 16.28999089631971 0.0 0.0 0.0 34.31052061344573" Properties=species:S:1:pos:R:3:initial_magmoms:R:1 pbc="T T T"
Si      -1.34609201       1.34583093      -1.35873169       0.00000000
Si       1.35861881       1.35506736       1.35499184       0.00000000
Si      -1.35558908      -1.35812988       1.35571236       0.00000000
Si       1.35702402      -1.35581670      -1.36037859       0.00000000
Si       0.01840726       2.68677486      -2.73236444       0.00000000
Si       0.00070157       2.71435383       2.71217955       0.00000000
Si      -2.71410992      -0.00097740       2.71272852       0.00000000
Si       0.00057989      -2.71498914       2.71187075       0.00000000
Si       2.71517508      -0.00066789       2.71193938       0.00000000
Si       2.71551717       2.71246419      -0.00192139       0.00000000
