10
Lattice="16.28999089631971 0.0 0.0 0.0 16.28999089631971 0.0 0.0 0.0 34.31052061344573" Properties=species:S:1:pos:R:3:initial_magmoms:R:1 pbc="T T T"
Si      -1.35089712      -1.35502101      -1.36820140       0.00000000
Si       1.35883035       1.36196292      -1.37221573       0.00000000
Si      -1.45474587       1.23441222       1.43380315       0.00000000
Si       1.49925015      -1.29084876       1.35372235       0.00000000
Si       0.15242553       2.44557372       2.82255656       0.00000000
Si      -2.70360243       2.72426304       0.00377416       0.00000000
Si       0.24658173      -2.87075642       2.54265117       0.00000000
Si       2.71873584      -2.71662044      -0.01458198       0.00000000
Si       2.71028133       2.72592462      -0.00802867       0.00000000
Si      -2.71360449       0.00275464      -2.72902602       0.00000000
