10
Lattice="16.28999089631971 0.0 0.0 0.0 16.28999089631971 0.0 0.0 0.0 34.31052061344573" Properties=species:S:1:pos:R:3:initial_magmoms:R:1 pbc="T T T"
Si      -1.89622116       1.11640257      -0.86514026       0.00000000
Si      -0.06960717      -1.31932710       2.03039481       0.00000000
Si       1.47057975       1.91057265       0.45434017       0.00000000
Si       0.38752281      -2.08944337      -1.30074687       0.00000000
Si       2.50496217      -2.60981275      -0.43382247       0.00000000
Si      -1.16882379       1.90177605      -2.94109947       0.00000000
Si      -3.56423571      -0.61538733      -0.85985644       0.00000000
Si      -1.85877045      -2.78533262       1.71250766       0.00000000
Si      -1.31038389      -3.50524604      -0.46552540       0.00000000
Si       1.77251490      -2.81018301       1.85571985       0.00000000
