10
Lattice="16.28999089631971 0.0 0.0 0.0 16.28999089631971 0.0 0.0 0.0 34.31052061344573" Properties=species:S:1:pos:R:3:initial_magmoms:R:1 pbc="T T T"
Si       0.21336642      -0.96501960      -2.15782416       0.00000000
Si       0.46635012      -1.66548471       1.63846552       0.00000000
Si      -2.21711787       0.71314362       0.62675063       0.00000000
Si       1.84386510       1.56498030       0.32790583       0.00000000
Si      -0.31372911      -0.30398769       3.46931023       0.00000000
Si      -2.05798086       3.04937397       0.34217901       0.00000000
Si       2.78176185      -2.15135188       1.35437425       0.00000000
Si      -1.57579686      -2.43102512      -2.47571131       0.00000000
Si       3.68786771       0.57164868      -0.82911419       0.00000000
Si      -2.60224605      -0.09567117       2.94260913       0.00000000
