10
Lattice="16.28999089631971 0.0 0.0 0.0 16.28999089631971 0.0 0.0 0.0 34.31052061344573" Properties=species:S:1:pos:R:3:initial_magmoms:R:1 pbc="T T T"
Si       1.34609201      -1.34583093       1.35873169       0.00000000
Si       1.36449927       1.34094393      -1.37363275       0.00000000
Si      -1.36767582       1.36847403       1.35372235       0.00000000
Si      -1.36528119      -1.33115364      -1.39701539       0.00000000
Si      -0.42997455       2.34299070      -2.53884956       0.00000000
Si      -2.39497209       0.56283579      -2.71393282       0.00000000
Si       2.70311603      -2.70164763      -0.00164691       0.00000000
Si      -0.00949707      -2.70396081       2.71444404       0.00000000
Si       2.70471082       0.00923643       2.71372352       0.00000000
Si      -2.72999223      -2.70140328      -0.00686211       0.00000000
