10
Lattice="16.28999089631971 0.0 0.0 0.0 16.28999089631971 0.0 0.0 0.0 34.31052061344573" Properties=species:S:1:pos:R:3:initial_magmoms:R:1 pbc="T T T"
Si       1.35616898      -1.35685926       1.35615840       0.00000000
Si       1.35558908       1.35812988      -1.35571236       0.00000000
Si      -1.35852084       1.35715248       1.35701616       0.00000000
Si      -1.35697329      -1.35868374      -1.35904048       0.00000000
Si       0.00949707       2.70396081      -2.71444404       0.00000000
Si      -0.00265527      -2.71290891      -2.71235110       0.00000000
Si       2.71420789       2.71319724      -0.00072052       0.00000000
Si       2.71333800      -0.00215028       2.71454698       0.00000000
Si       2.71334452      -2.71479692      -0.00044604       0.00000000
Si      -0.00184077       2.71451673       2.71406663       0.00000000
