10
Lattice="16.28999089631971 0.0 0.0 0.0 16.28999089631971 0.0 0.0 0.0 34.31052061344573" Properties=species:S:1:pos:R:3:initial_magmoms:R:1 pbc="T T T"
Si      -1.35703845       1.35720135      -1.36010411       0.00000000
Si      -1.36335897      -1.35027810       1.36195688       0.00000000
Si       1.35814032      -1.35946566      -1.35962376       0.00000000
Si       1.35532704       1.36482507       1.36199119       0.00000000
Si       0.10618818      -2.62211985       2.65048920       0.00000000
Si      -2.71480995      -2.71423980      -0.00223019       0.00000000
Si      -2.71371852      -0.00016290      -2.71715458       0.00000000
Si      -2.71311579       2.71829601      -0.00174984       0.00000000
Si       2.71432844       2.71726974       0.00078914       0.00000000
Si       0.00097130      -2.71417464      -2.71801234       0.00000000
