10
Lattice="16.28999089631971 0.0 0.0 0.0 16.28999089631971 0.0 0.0 0.0 34.31052061344573" Properties=species:S:1:pos:R:3:initial_magmoms:R:1 pbc="T T T"
Si      -1.49954337       0.06289569       1.72753568       0.00000000
Si      -0.17423784      -1.22381883      -1.99635876       0.00000000
Si       1.90932225       1.38903201      -0.13655595       0.00000000
Si       0.26321382      -1.43348742       2.47622597       0.00000000
Si       0.37709721      -3.36904893      -0.69660689       0.00000000
Si       1.58212782       2.19338334      -2.32652908       0.00000000
Si      -3.25392750       1.46184831       0.18438484       0.00000000
Si       0.73050876       0.34239951      -3.60994913       0.00000000
Si      -1.29994200       2.19849840       2.74508336       0.00000000
Si       1.20111450      -3.36683349       1.47161336       0.00000000
