10
Lattice="16.28999089631971 0.0 0.0 0.0 16.28999089631971 0.0 0.0 0.0 34.31052061344573" Properties=species:S:1:pos:R:3:initial_magmoms:R:1 pbc="T T T"
Si       2.04948792      -0.96790293       0.67056519       0.00000000
Si       0.93700080       0.81827928      -2.03945280       0.00000000
Si      -1.47057975      -1.91057265      -0.45434017       0.00000000
Si      -0.70726293       1.95380631       1.38720943       0.00000000
Si       2.25930312      -2.49872310      -1.14734445       0.00000000
Si       3.44729699       0.92374074       0.78385859       0.00000000
Si      -3.36680091      -0.79417008      -1.31948043       0.00000000
Si      -0.82575639       2.31466239      -2.78814308       0.00000000
Si       1.87490148      -1.11506679      -3.04406540       0.00000000
Si       2.96852248       1.90607661      -1.32016664       0.00000000
