10
Lattice="16.28999089631971 0.0 0.0 0.0 16.28999089631971 0.0 0.0 0.0 34.31052061344573" Properties=species:S:1:pos:R:3:initial_magmoms:R:1 pbc="T T T"
Si      -1.36669842      -1.34170956      -1.33848847       0.00000000
Si       1.35429942      -1.35477414       1.35818272       0.00000000
Si      -1.36153449       1.35876519       1.35900617       0.00000000
Si       1.36210464       1.35477414      -1.36887045       0.00000000
Si      -2.58248628       0.06861348      -2.73898637       0.00000000
Si       2.55418796      -0.22095756      -2.80193935       0.00000000
Si       2.71470474       2.71326240      -0.00082345       0.00000000
Si      -0.00360009      -2.71210581       2.71684578       0.00000000
Si       2.71698208      -2.71220355      -0.00209294       0.00000000
Si       2.71224983       0.00245979       2.71722320       0.00000000
