10
Lattice="16.28999089631971 0.0 0.0 0.0 16.28999089631971 0.0 0.0 0.0 34.31052061344573" Properties=species:S:1:pos:R:3:initial_magmoms:R:1 pbc="T T T"
Si       0.38046924       1.77191217       1.48574930       0.00000000
Si      -1.19480634      -1.85342733       0.87289444       0.00000000
Si       2.20838710      -0.75321702      -0.43999836       0.00000000
Si      -1.36236528      -0.33629076      -2.04250643       0.00000000
Si      -1.29536451       1.71328446       3.06074032       0.00000000
Si       2.02841355       1.07812107       2.98367885       0.00000000
Si      -0.41003559      -2.26414710       3.00889710       0.00000000
Si       1.14231411       3.65602986       0.35130562       0.00000000
Si       2.98848914      -2.08971378       1.31673559       0.00000000
Si       2.01445791      -2.66289372      -2.00874486       0.00000000
