10
Lattice="16.28999089631971 0.0 0.0 0.0 16.28999089631971 0.0 0.0 0.0 34.31052061344573" Properties=species:S:1:pos:R:3:initial_magmoms:R:1 pbc="T T T"
Si       1.32361137       1.26333837       1.46650109       0.00000000
Si      -1.30646614       1.34933328      -1.41205026       0.00000000
Si      -1.31759873      -1.39393530       1.41016319       0.00000000
Si       1.40261787      -1.37771046      -1.39173843       0.00000000
Si       1.13176404      -1.00395270       2.42530913       0.00000000
Si      -2.55560501      -2.63761164      -0.12355225       0.00000000
Si      -2.72165894       2.65934250       0.00168122       0.00000000
Si       2.77404039       2.62874988       0.10193661       0.00000000
Si      -2.66179319      -0.01549179      -2.77404145       0.00000000
Si       0.05253525       2.70177795      -2.77325231       0.00000000
