10
Lattice="16.28999089631971 0.0 0.0 0.0 16.28999089631971 0.0 0.0 0.0 34.31052061344573" Properties=species:S:1:pos:R:3:initial_magmoms:R:1 pbc="T T T"
Si      -0.69555042      -1.33915203      -1.80168075       0.00000000
Si       2.30476851      -0.56565396      -0.00109794       0.00000000
Si      -0.61802631      -0.86916924       2.12286172       0.00000000
Si       0.33309792       2.21310631      -0.81755154       0.00000000
Si       1.92687147       2.92495488       0.72021254       0.00000000
Si      -0.86281614      -3.17016432       1.53299492       0.00000000
Si      -2.92395726      -0.46547046       2.12087171       0.00000000
Si      -0.89541243      -3.47509683      -0.81964448       0.00000000
Si       0.98028333      -1.28052432      -3.37667177       0.00000000
Si       2.62822764      -1.97431542      -1.87874223       0.00000000
