10
Lattice="16.28999089631971 0.0 0.0 0.0 16.28999089631971 0.0 0.0 0.0 34.31052061344573" Properties=species:S:1:pos:R:3:initial_magmoms:R:1 pbc="T T T"
Si       1.52783488       1.77241716      -0.11006821       0.00000000
Si      -2.16241605       0.77095683      -0.60170394       0.00000000
Si       0.22296123      -0.76391955       2.26545632       0.00000000
Si       1.16159103      -1.55659095      -1.43253366       0.00000000
Si      -2.86593228       2.08767753       1.21723502       0.00000000
Si       2.29057015       1.93730454      -2.25145762       0.00000000
Si       2.97522908      -0.29634768      -2.38571476       0.00000000
Si       2.21343537       0.56726667       3.12407758       0.00000000
Si       1.11444777      -2.92978908       2.37288262       0.00000000
Si       3.34269890       1.67327622       1.39232170       0.00000000
