10
Lattice="16.28999089631971 0.0 0.0 0.0 16.28999089631971 0.0 0.0 0.0 34.31052061344573" Properties=species:S:1:pos:R:3:initial_magmoms:R:1 pbc="T T T"
Si       0.89148654      -2.16586953       0.10742630       0.00000000
Si      -0.22296123       0.76391955      -2.26545632       0.00000000
Si      -1.52591688       0.51285807       1.84542669       0.00000000
Si       1.99047414       1.33118622       0.85862126       0.00000000
Si       3.28218155      -1.57739328      -0.40939336       0.00000000
Si      -3.42686214       1.25977086       0.66414912       0.00000000
Si       1.30487365       2.53633671      -2.37552453       0.00000000
Si      -0.24206940       1.92621105       3.31330505       0.00000000
Si       1.08225793       3.31092688       1.72815327       0.00000000
Si       0.93862980      -0.79267140      -3.69798998       0.00000000
