10
Lattice="16.28999089631971 0.0 0.0 0.0 16.28999089631971 0.0 0.0 0.0 34.31052061344573" Properties=species:S:1:pos:R:3:initial_magmoms:R:1 pbc="T T T"
Si      -0.82401729      -0.00221544      -2.16822025       0.00000000
Si      -0.93790068       1.93334607       1.00461260       0.00000000
Si       0.38440165      -1.38365631       1.89672095       0.00000000
Si       2.35226297       0.00291591      -0.58482315       0.00000000
Si       2.92490534       1.90718433       0.66538430       0.00000000
Si       1.09362101       3.02114340       1.72389876       0.00000000
Si       0.17458645       0.14716386       3.71463059       0.00000000
Si      -1.87490148       1.11506679       3.04406540       0.00000000
Si       0.93345447      -0.34404480      -3.67308053       0.00000000
Si      -1.20111450       3.36683349      -1.47161336       0.00000000
