10
Lattice="16.28999089631971 0.0 0.0 0.0 16.28999089631971 0.0 0.0 0.0 34.31052061344573" Properties=species:S:1:pos:R:3:initial_magmoms:R:1 pbc="T T T"
Si       0.29721105       2.29599405       0.30731950       0.00000000
Si       1.80177174      -0.56161404      -1.37773973       0.00000000
Si      -1.92640653      -0.48871629      -1.23154252       0.00000000
Si      -0.01971090      -1.21168278       2.01104367       0.00000000
Si      -1.22753947       2.98424655      -1.32328890       0.00000000
Si      -1.96501220      -2.80439192      -1.19716335       0.00000000
Si      -2.28627234      -1.49200110       2.51691827       0.00000000
Si       3.13600419       1.35658233      -1.45548741       0.00000000
Si      -3.77040914       0.50461533      -0.07452249       0.00000000
Si       1.23639471      -0.12364110       3.66422841       0.00000000
