10
Lattice="16.28999089631971 0.0 0.0 0.0 16.28999089631971 0.0 0.0 0.0 34.31052061344573" Properties=species:S:1:pos:R:3:initial_magmoms:R:1 pbc="T T T"
Si       0.31543956      -0.37398582       2.38279837       0.00000000
Si      -2.43656698      -0.30664296      -0.51767742       0.00000000
Si       1.12282083       2.20454199       0.59161664       0.00000000
Si       1.11389391      -1.27148337      -2.11558788       0.00000000
Si      -0.64278711      -0.30245643      -3.39897362       0.00000000
Si      -0.66973077       3.79996830       0.22490559       0.00000000
Si      -1.91217396       2.86826175      -1.92619370       0.00000000
Si       2.19359511      -2.15603037       2.65016226       0.00000000
Si      -3.53601233      -2.03848173       0.56660425       0.00000000
Si      -2.87237009      -0.80099559      -2.89978958       0.00000000
