10
Lattice="16.28999089631971 0.0 0.0 0.0 16.28999089631971 0.0 0.0 0.0 34.31052061344573" Properties=species:S:1:pos:R:3:initial_magmoms:R:1 pbc="T T T"
Si      -0.06734659       0.97202430      -2.08796451       0.00000000
Si      -1.79275081      -0.93408489       1.30257700       0.00000000
Si       1.18386943       1.94056254       1.03602185       0.00000000
Si       0.00172301      -1.93613166       2.46779381       0.00000000
Si       2.69531427       0.79182432       2.45585031       0.00000000
Si      -2.73701695       0.81981054       2.49947273       0.00000000
Si       1.47738428      -3.39177348       0.87861538       0.00000000
Si       2.32334841       1.56050055      -2.60478417       0.00000000
Si      -0.78785329      -0.55293147      -3.78884090       0.00000000
Si      -0.95883313       3.13789383      -2.19539081       0.00000000
