10
Lattice="16.28999089631971 0.0 0.0 0.0 16.28999089631971 0.0 0.0 0.0 34.31052061344573" Properties=species:S:1:pos:R:3:initial_magmoms:R:1 pbc="T T T"
Si      -1.34865073      -1.34250777       1.38001795       0.00000000
Si      -1.51144484       1.14873822      -1.41982846       0.00000000
Si       1.36573731       1.37165058       1.38334607       0.00000000
Si       1.32175431      -1.57250628      -1.44935268       0.00000000
Si       0.01606194       2.24466426      -2.95883943       0.00000000
Si      -2.69531427      -0.79182432      -2.45585031       0.00000000
Si       2.71155195       2.70747945       0.01566619       0.00000000
Si      -2.69359127      -2.72795598       0.01194350       0.00000000
Si      -2.70352817       2.72446992       0.01324044       0.00000000
Si       2.72803743      -2.70759348       0.02747245       0.00000000
