10
Lattice="16.28999089631971 0.0 0.0 0.0 16.28999089631971 0.0 0.0 0.0 34.31052061344573" Properties=species:S:1:pos:R:3:initial_magmoms:R:1 pbc="T T T"
Si      -1.35689836      -1.35739683       1.35691323       0.00000000
Si       1.35821133      -1.35627282      -1.35801116       0.00000000
Si       1.35804843       1.35946566       1.35650150       0.00000000
Si      -1.35216937       1.35975888      -1.36236860       0.00000000
Si      -0.00289962      -2.70910845      -2.71396713       0.00000000
Si      -0.00034209      -2.71313208       2.71386077       0.00000000
Si       2.71288773      -2.71432125       0.00102932       0.00000000
Si      -2.69710991      -0.02568933      -2.73044305       0.00000000
Si      -2.71551717      -2.71246419       0.00192139       0.00000000
Si      -2.71481559       0.00188964       2.71410094       0.00000000
