10
Lattice="16.28999089631971 0.0 0.0 0.0 16.28999089631971 0.0 0.0 0.0 34.31052061344573" Properties=species:S:1:pos:R:3:initial_magmoms:R:1 pbc="T T T"
Si      -0.32719442       0.80435133      -2.18997313       0.00000000
Si      -1.90932225      -1.38903201       0.13655595       0.00000000
Si       2.13606209      -1.07082315      -0.23663979       0.00000000
Si       0.19392919       1.90967670       1.56874650       0.00000000
Si       0.97403123       0.57317994       3.32548045       0.00000000
Si       0.38541326      -1.73472210       3.33206807       0.00000000
Si      -1.17881349      -1.04663250      -3.47339318       0.00000000
Si      -2.08356009      -2.61285084      -1.85980281       0.00000000
Si      -2.01445791       2.66289372       2.00874486       0.00000000
Si      -2.08417911       2.53179180      -2.23670409       0.00000000
