10
Lattice="16.28999089631971 0.0 0.0 0.0 16.28999089631971 0.0 0.0 0.0 34.31052061344573" Properties=species:S:1:pos:R:3:initial_magmoms:R:1 pbc="T T T"
Si       1.15320168      -0.75777822      -1.87483083       0.00000000
Si       0.93260250      -1.03658157       1.86786579       0.00000000
Si       0.19312610       2.41005663      -0.20788756       0.00000000
Si      -2.24532305      -0.93221154      -0.18266931       0.00000000
Si      -3.33051398       0.90927522       0.85121018       0.00000000
Si       0.56458371      -3.06568026      -1.86824320       0.00000000
Si       0.37309964       0.57871854      -3.63156477       0.00000000
Si       0.45677160       0.25226694       3.69462755       0.00000000
Si      -1.45481822       3.10384773      -1.70581711       0.00000000
Si      -3.03009380      -0.52149177      -2.31867197       0.00000000
