10
Lattice="16.28999089631971 0.0 0.0 0.0 16.28999089631971 0.0 0.0 0.0 34.31052061344573" Properties=species:S:1:pos:R:3:initial_magmoms:R:1 pbc="T T T"
Si       1.35698306      -1.35757602       1.35708478       0.00000000
Si       1.35703193       1.35718506      -1.35756513       0.00000000
Si      -1.35744696       1.35744570       1.35732495       0.00000000
Si      -1.35795041      -1.35723393      -1.35904048       0.00000000
Si      -0.00136836      -2.71458189       2.71320887       0.00000000
Si       2.71387490       0.00136836       2.71451267       0.00000000
Si       0.00245490       2.71080261      -2.71804665       0.00000000
Si       0.00190593       2.71536381       2.71386077       0.00000000
Si       2.71519439       2.71419093      -0.00003431       0.00000000
Si      -2.71224983      -0.00245979      -2.71722320       0.00000000
