10
Lattice="16.28999089631971 0.0 0.0 0.0 16.28999089631971 0.0 0.0 0.0 34.31052061344573" Properties=species:S:1:pos:R:3:initial_magmoms:R:1 pbc="T T T"
Si       1.37298636       1.34477208       1.34833559       0.00000000
Si      -1.35444182       1.35738054      -1.35643288       0.00000000
Si       1.35752715      -1.35661491      -1.35578098       0.00000000
Si      -1.34939844      -1.36435266       1.36271171       0.00000000
Si       0.06941169       2.68154577       2.70181777       0.00000000
Si      -2.71123019       2.71132041       0.00432313       0.00000000
Si      -2.71379472      -0.00053757      -2.71296869       0.00000000
Si       0.00141723       2.71403664      -2.71320887       0.00000000
Si      -2.70828485      -2.71943631       0.00144104       0.00000000
Si       0.00063531      -2.71555929      -2.71320887       0.00000000
