10
Lattice="16.28999089631971 0.0 0.0 0.0 16.28999089631971 0.0 0.0 0.0 34.31052061344573" Properties=species:S:1:pos:R:3:initial_magmoms:R:1 pbc="T T T"
Si       1.30357467      -1.33677369      -1.35348217       0.00000000
Si      -1.03040766      -1.69277535       1.25531972       0.00000000
Si      -1.41171258       1.39254643      -1.33914037       0.00000000
Si       1.62443880       0.60184612       1.67257019       0.00000000
Si      -1.77115957       0.13451209       2.61237019       0.00000000
Si       2.40096681       2.41514630      -0.01242042       0.00000000
Si       2.47528179      -2.66409918       0.22518007       0.00000000
Si       2.65020381       0.03082068      -2.70315588       0.00000000
Si      -0.06941169      -2.68154577      -2.70181777       0.00000000
Si       0.61338366      -3.46902066       1.54963553       0.00000000
