10
Lattice="16.28999089631971 0.0 0.0 0.0 16.28999089631971 0.0 0.0 0.0 34.31052061344573" Properties=species:S:1:pos:R:3:initial_magmoms:R:1 pbc="T T T"
Si      -0.70319043      -1.84021614      -1.34572799       0.00000000
Si       1.86189813       0.80492148      -1.32445546       0.00000000
Si      -1.64379132       1.77624531      -0.29431581       0.00000000
Si      -0.77748912       0.09484038       2.55898299       0.00000000
Si       1.59843996      -0.04184901       2.65354284       0.00000000
Si      -2.03219379      -0.57687777      -2.88874159       0.00000000
Si       0.69019101       2.13224697      -2.90311770       0.00000000
Si       2.85156450       2.49085503       0.03990316       0.00000000
Si      -3.41623196       0.73814877      -1.51062445       0.00000000
Si      -0.61338366       3.46902066      -1.54963553       0.00000000
