10
Lattice="16.28999089631971 0.0 0.0 0.0 16.28999089631971 0.0 0.0 0.0 34.31052061344573" Properties=species:S:1:pos:R:3:initial_magmoms:R:1 pbc="T T T"
Si      -0.76184487      -1.88411769       1.13444369       0.00000000
Si      -1.07348886       0.13209561      -2.06968038       0.00000000
Si       2.28069448      -0.53851482      -0.40654559       0.00000000
Si      -0.67658301       1.80988320       1.40402160       0.00000000
Si       2.43742057       0.86238708       2.37284831       0.00000000
Si       0.76680288       0.92135167      -3.29954168       0.00000000
Si       2.71215142      -1.44133920       1.73769160       0.00000000
Si      -2.79402237       2.33025259       0.53709719       0.00000000
Si      -2.78807652       1.79840364      -1.78160909       0.00000000
Si       2.90764771       1.31778837      -2.03955573       0.00000000
