10
Lattice="16.28999089631971 0.0 0.0 0.0 16.28999089631971 0.0 0.0 0.0 34.31052061344573" Properties=species:S:1:pos:R:3:initial_magmoms:R:1 pbc="T T T"
Si       1.11599206      -1.33955928       1.50938927       0.00000000
Si       0.32345913      -1.40866146      -1.87764429       0.00000000
Si      -2.30476851       0.56565396       0.00109794       0.00000000
Si       1.37140297       2.00028875       0.16403869       0.00000000
Si       1.87478026       2.03163441      -2.13716921       0.00000000
Si      -1.97167059       2.77876027      -0.81645360       0.00000000
Si       2.14951111      -0.27209187      -2.77232593       0.00000000
Si       3.29782579      -1.14794001       0.62736822       0.00000000
Si      -3.00031893      -0.77349807      -1.80058282       0.00000000
Si      -0.37789705       3.49060884       0.72131048       0.00000000
