10
Lattice="16.28999089631971 0.0 0.0 0.0 16.28999089631971 0.0 0.0 0.0 34.3005442915855" Properties=species:S:1:pos:R:3:initial_magmoms:R:1 pbc="T T T"
Si       1.35591444       1.35700442       1.35768490       0.00000000
Si      -1.35845568      -1.35813038       1.35734190       0.00000000
Si       1.35490446      -1.35920552      -1.36001734       0.00000000
Si      -1.35681039       1.35563117      -1.36183527       0.00000000
Si       2.71430496       2.71444197      -0.00154353       0.00000000
Si       2.71409319      -0.00088402       2.71502680       0.00000000
Si      -2.71498914      -2.71424030      -0.00116622       0.00000000
Si      -0.00141723       2.71439310       2.71485530       0.00000000
Si       2.71396287      -2.71642316       0.00017150       0.00000000
Si      -0.00138465      -2.71572269       2.71499250       0.00000000
