10
Lattice="16.28999089631971 0.0 0.0 0.0 16.28999089631971 0.0 0.0 0.0 34.3005442915855" Properties=species:S:1:pos:R:3:initial_magmoms:R:1 pbc="T T T"
Si      -0.96431913       0.50409405      -2.05179111       0.00000000
Si      -1.28273976      -0.90228681       1.75766377       0.00000000
Si       2.00845926      -1.25411823       0.13092525       0.00000000
Si       1.46577420       1.93991094       0.35343301       0.00000000
Si       2.88085392       0.01503567       1.97032727       0.00000000
Si       0.96467751       1.20542742      -3.30657432       0.00000000
Si       2.73414618       1.87440885      -1.82005650       0.00000000
Si       0.14188590      -0.64091376       3.92665990       0.00000000
Si      -3.07186231       0.44225721       2.54441580       0.00000000
Si       0.12103470       3.73045887       1.50294779       0.00000000
