10
Lattice="16.28999089631971 0.0 0.0 0.0 16.28999089631971 0.0 0.0 0.0 34.3005442915855" Properties=species:S:1:pos:R:3:initial_magmoms:R:1 pbc="T T T"
Si      -0.33078474       2.19577797       0.76184982       0.00000000
Si       1.65812652      -1.52676396       0.68607987       0.00000000
Si      -2.02776291      -1.21306743      -0.28136752       0.00000000
Si       0.71120511      -0.55711800      -2.23770016       0.00000000
Si       1.50728112      -2.66238873      -1.39047624       0.00000000
Si      -2.44866393       2.65953798      -0.39493669       0.00000000
Si      -0.10884978       2.01124485       3.14340654       0.00000000
Si      -1.37088495      -3.49347195      -0.43462244       0.00000000
Si       1.02281652      -2.71210581       2.53443433       0.00000000
Si       3.78361314      -0.58088511       0.91246359       0.00000000
