10
Lattice="16.28999089631971 0.0 0.0 0.0 16.28999089631971 0.0 0.0 0.0 34.3005442915855" Properties=species:S:1:pos:R:3:initial_magmoms:R:1 pbc="T T T"
Si      -0.51241824       1.62199530       1.55371262       0.00000000
Si       0.01495422      -2.22872354       0.72202686       0.00000000
Si      -1.54207656       0.09798435      -1.76548430       0.00000000
Si       1.00756908      -2.61699569      -1.41349192       0.00000000
Si       0.24314454      -0.85522663      -3.01347600       0.00000000
Si       3.06349740       0.77729364       1.15582609       0.00000000
Si       1.52482545       1.86191442       2.73245149       0.00000000
Si      -2.18403288       0.87174306       2.97948414       0.00000000
Si       1.61174889      -2.59625852       2.35243554       0.00000000
Si      -3.32969066      -1.61273281      -1.33319430       0.00000000
