10
Lattice="16.28999089631971 0.0 0.0 0.0 16.28999089631971 0.0 0.0 0.0 34.3005442915855" Properties=species:S:1:pos:R:3:initial_magmoms:R:1 pbc="T T T"
Si       1.18863243       1.51446501      -1.42549712       0.00000000
Si      -1.26172566       1.62588861       1.26966966       0.00000000
Si      -1.61111358      -1.34640108      -1.40824393       0.00000000
Si       2.48629383       0.95827554       1.18570188       0.00000000
Si      -1.79188371      -0.20430918       2.80660930       0.00000000
Si       2.38255911       0.01133784      -2.78187860       0.00000000
Si       0.08171064      -1.58413734       3.40590875       0.00000000
Si       0.24218343       3.57516630       1.53042254       0.00000000
Si      -0.32097816      -2.69216685      -2.80537448       0.00000000
Si      -0.33811524       2.73023658      -2.79467271       0.00000000
