10
Lattice="16.28999089631971 0.0 0.0 0.0 16.28999089631971 0.0 0.0 0.0 34.3005442915855" Properties=species:S:1:pos:R:3:initial_magmoms:R:1 pbc="T T T"
Si       0.33078474      -2.19577797      -0.76184982       0.00000000
Si       1.78113231       1.51153281      -0.35319290       0.00000000
Si       0.22193496      -0.18453312       2.38155672       0.00000000
Si      -2.11787919       0.46376001      -1.15678650       0.00000000
Si      -1.91744703      -1.09014309       2.86951654       0.00000000
Si       0.98443728       3.62792961       0.29141759       0.00000000
Si      -2.70555723       2.68043805      -0.69407190       0.00000000
Si       3.62196747       1.02628629       1.05412492       0.00000000
Si       2.04779961       2.04750639      -2.64505365       0.00000000
Si      -1.69697817      -3.40884540      -1.04321734       0.00000000
