10
Lattice="16.28999089631971 0.0 0.0 0.0 16.28999089631971 0.0 0.0 0.0 34.3005442915855" Properties=species:S:1:pos:R:3:initial_magmoms:R:1 pbc="T T T"
Si       1.38640932      -1.31655780      -1.35514666       0.00000000
Si      -1.33128396       1.42606474      -1.32602548       0.00000000
Si       1.86150717       0.81561165       1.31710734       0.00000000
Si      -1.24496325      -0.80066979       2.15486430       0.00000000
Si       0.41852268       0.63390159       3.20820030       0.00000000
Si      -2.50931160      -2.52193635       0.02469641       0.00000000
Si       2.71746522      -2.64386700       0.03457497       0.00000000
Si       0.04162095      -2.66403402      -2.70895560       0.00000000
Si      -2.68136658       0.05714532      -2.70538834       0.00000000
Si       2.74836735       0.05535613      -2.70175248       0.00000000
