10
Lattice="16.28999089631971 0.0 0.0 0.0 16.28999089631971 0.0 0.0 0.0 34.3005442915855" Properties=species:S:1:pos:R:3:initial_magmoms:R:1 pbc="T T T"
Si       1.35681039      -1.35563117       1.36183527       0.00000000
Si      -1.35998694       1.36128688       1.36080625       0.00000000
Si       1.35643572       1.35895741      -1.38356811       0.00000000
Si      -1.36153449      -1.36204992      -1.39233190       0.00000000
Si       2.71171485      -2.71483668       0.00181793       0.00000000
Si      -2.71669307      -2.71400589       0.00010290       0.00000000
Si       2.71239903       2.71977514       0.00216094       0.00000000
Si       2.71272483       0.00137325       2.71952017       0.00000000
Si      -0.00164529      -2.71376154       2.71917717       0.00000000
Si      -0.00245979       2.71674520       2.71897136       0.00000000
