10
Lattice="16.28999089631971 0.0 0.0 0.0 16.28999089631971 0.0 0.0 0.0 34.3005442915855" Properties=species:S:1:pos:R:3:initial_magmoms:R:1 pbc="T T T"
Si       2.03188428      -0.93102237      -0.61343128       0.00000000
Si       0.13598892       0.39573297       2.30990285       0.00000000
Si      -0.69585993       1.79302794      -1.36505952       0.00000000
Si      -1.40656005      -1.74832425      -0.74010326       0.00000000
Si       1.63279557      -0.77657688      -2.92566656       0.00000000
Si      -2.86690968      -1.61958438       1.08976320       0.00000000
Si       0.93643065       1.49417974      -3.03024898       0.00000000
Si      -1.97654715      -0.29820474       2.89891212       0.00000000
Si       3.72852036       0.42460134       0.35617705       0.00000000
Si      -2.82911688       1.19324154      -2.19602497       0.00000000
