10
Lattice="16.28999089631971 0.0 0.0 0.0 16.28999089631971 0.0 0.0 0.0 34.3005442915855" Properties=species:S:1:pos:R:3:initial_magmoms:R:1 pbc="T T T"
Si       0.58930704      -0.89649639       2.08334762       0.00000000
Si      -0.56770650       2.26608398       0.31724591       0.00000000
Si       1.44298449       0.18171006      -1.89109297       0.00000000
Si      -1.66348593      -1.43457138      -1.05333600       0.00000000
Si      -0.41852268      -0.63390159      -3.20820030       0.00000000
Si      -1.24429536       0.11729614       3.19235344       0.00000000
Si      -1.81835496       2.29915268       2.34173377       0.00000000
Si       2.61514773      -0.09152374       2.97742611       0.00000000
Si      -3.87428328      -1.09513665      -0.22758424       0.00000000
Si       1.08036909      -3.24671985       2.15524160       0.00000000
