10
Lattice="16.28999089631971 0.0 0.0 0.0 16.28999089631971 0.0 0.0 0.0 34.3005442915855" Properties=species:S:1:pos:R:3:initial_magmoms:R:1 pbc="T T T"
Si      -2.02584069      -0.80497265      -0.89407849       0.00000000
Si      -0.11934054       2.25366123       0.68031738       0.00000000
Si       0.12577509      -1.45582331       1.87665243       0.00000000
Si       1.92520107      -0.78094490      -1.16796849       0.00000000
Si       2.01978081      -2.35019318       0.57810170       0.00000000
Si      -1.16931249       1.62094134       2.73255439       0.00000000
Si      -1.53477864      -3.15519611      -0.82218451       0.00000000
Si       0.40024530       0.09346062       3.63846657       0.00000000
Si       0.18920835      -3.69827213       0.70100062       0.00000000
Si      -1.23768162       3.44491635      -1.08883709       0.00000000
