10
Lattice="16.28999089631971 0.0 0.0 0.0 16.28999089631971 0.0 0.0 0.0 34.3005442915855" Properties=species:S:1:pos:R:3:initial_magmoms:R:1 pbc="T T T"
Si      -0.45173799       1.44928872       1.75910440       0.00000000
Si      -1.86010623      -1.39888583      -0.34955704       0.00000000
Si       1.56955779      -1.52748072       0.90591218       0.00000000
Si       1.04997195       0.63271989      -2.05223701       0.00000000
Si       1.16931249      -1.62094134      -2.73255439       0.00000000
Si       1.29508758      -3.07676465      -0.85590196       0.00000000
Si       1.68477696       2.45470752       2.15380098       0.00000000
Si      -0.97642260      -3.58247141      -0.15349502       0.00000000
Si      -2.40916068       2.63572200       1.17743544       0.00000000
Si       2.96065863       1.87561431      -1.38622297       0.00000000
