10
Lattice="16.28999089631971 0.0 0.0 0.0 16.28999089631971 0.0 0.0 0.0 34.3005442915855" Properties=species:S:1:pos:R:3:initial_magmoms:R:1 pbc="T T T"
Si       1.89133416       1.11664040       0.60986402       0.00000000
Si      -0.67131090      -0.94699778       2.00946421       0.00000000
Si       0.76621644      -1.52711975      -1.59518200       0.00000000
Si      -1.63176930       1.52351573      -0.80976770       0.00000000
Si      -2.36794698      -2.30262149       1.03985588       0.00000000
Si       0.80896140       2.62970447       2.10800973       0.00000000
Si      -0.59368905       1.11664040       3.34650017       0.00000000
Si      -2.76703569      -2.14817600      -1.27237940       0.00000000
Si      -3.46340061       0.12258062      -1.37696182       0.00000000
Si       2.87699319       2.07191858      -1.29014709       0.00000000
