10
Lattice="16.28999089631971 0.0 0.0 0.0 16.28999089631971 0.0 0.0 0.0 34.3005442915855" Properties=species:S:1:pos:R:3:initial_magmoms:R:1 pbc="T T T"
Si       1.35977517      -1.35531171       1.36128646       0.00000000
Si      -1.35602847       1.36130643       1.36252128       0.00000000
Si       1.36572102       1.36241415      -1.36380755       0.00000000
Si      -1.36115982      -1.36291914      -1.36991648       0.00000000
Si      -2.70198972       0.05344749      -2.70823529       0.00000000
Si      -2.71502172      -2.71070487       0.00202373       0.00000000
Si      -2.71635750       2.71458189       0.00692871       0.00000000
Si       2.71632492       2.71546155       0.00212663       0.00000000
Si       0.00052128      -2.71391400       2.71921147       0.00000000
Si      -2.71438641       0.00149868       2.71938297       0.00000000
