10
Lattice="16.28999089631971 0.0 0.0 0.0 16.28999089631971 0.0 0.0 0.0 34.3005442915855" Properties=species:S:1:pos:R:3:initial_magmoms:R:1 pbc="T T T"
Si      -0.32553936       2.32997499      -0.37915843       0.00000000
Si      -2.13887700      -0.78483591       0.80174137       0.00000000
Si       1.66286691      -0.00208512       1.84907478       0.00000000
Si       1.57589460      -2.11452345      -0.80232448       0.00000000
Si      -0.24664689      -0.40954689      -2.93489341       0.00000000
Si       3.28456899      -1.21178052       0.57443154       0.00000000
Si      -1.34280099      -2.89010664       1.64896529       0.00000000
Si       1.90700514       3.01169520      -1.20161734       0.00000000
Si      -3.01127166      -2.05398981      -1.03766065       0.00000000
Si      -3.55395672       1.14003936      -0.81515289       0.00000000
