10
Lattice="16.28999089631971 0.0 0.0 0.0 16.28999089631971 0.0 0.0 0.0 34.3005442915855" Properties=species:S:1:pos:R:3:initial_magmoms:R:1 pbc="T T T"
Si       0.06799446      -1.93627827      -1.26894935       0.00000000
Si      -1.31779584      -0.54380907       1.99097621       0.00000000
Si       2.27305773      -0.33228342       0.97427320       0.00000000
Si      -1.40038614       1.58107482      -1.63274112       0.00000000
Si      -2.04289632       1.70885358       1.80589037       0.00000000
Si      -0.10080252       3.08335491       1.25399430       0.00000000
Si       1.58579892      -1.08194922      -2.86063269       0.00000000
Si      -3.31302762       1.57615524      -0.19414119       0.00000000
Si       2.00658591       0.90069039       3.08924595       0.00000000
Si       0.01855431      -0.25824537       3.86313526       0.00000000
