10
Lattice="16.28999089631971 0.0 0.0 0.0 16.28999089631971 0.0 0.0 0.0 34.3005442915855" Properties=species:S:1:pos:R:3:initial_magmoms:R:1 pbc="T T T"
Si       1.35060390       1.35304740       1.36593419       0.00000000
Si      -1.31233869       1.38173409      -1.38844908       0.00000000
Si      -1.36572102      -1.36241415       1.36380755       0.00000000
Si       1.41353217      -1.33345053      -1.39502450       0.00000000
Si      -2.47340844      -0.11531691      -2.77333574       0.00000000
Si       2.71432125       2.69589726      -0.01072236       0.00000000
Si      -2.71425609       2.71365336       0.00253138       0.00000000
Si       2.70824508      -0.00291591       2.72475101       0.00000000
Si      -0.00651600       2.71267596       2.72581433       0.00000000
Si       2.72046258      -2.71811682      -0.01176509       0.00000000
