10
Lattice="16.28999089631971 0.0 0.0 0.0 16.28999089631971 0.0 0.0 0.0 34.3005442915855" Properties=species:S:1:pos:R:3:initial_magmoms:R:1 pbc="T T T"
Si      -0.25635573       2.16823158      -0.82355653       0.00000000
Si      -1.82957877      -0.32863446       1.45208005       0.00000000
Si       1.94903334      -0.10858914       1.32722600       0.00000000
Si       0.23607468      -1.63471779      -1.72706767       0.00000000
Si       3.52165365      -1.05754680      -0.31196362       0.00000000
Si       1.70088777      -2.22348726       2.43410519       0.00000000
Si       1.71694971       2.59621875      -2.03165667       0.00000000
Si      -0.03315015       3.55488525       1.10763380       0.00000000
Si      -1.88941194      -2.58059664      -1.95345139       0.00000000
Si       2.14970985      -2.86484085      -1.11981050       0.00000000
