10
Lattice="16.28999089631971 0.0 0.0 0.0 16.28999089631971 0.0 0.0 0.0 34.3005442915855" Properties=species:S:1:pos:R:3:initial_magmoms:R:1 pbc="T T T"
Si       1.35602847       1.35751860      -1.35744480       0.00000000
Si       1.35304740      -1.35674523       1.36145796       0.00000000
Si      -1.35886293      -1.35806472      -1.35747910       0.00000000
Si      -1.36216980       1.35772534       1.36248698       0.00000000
Si       2.71287144       2.71434636       0.00010290       0.00000000
Si       2.71370223      -0.00024435      -2.71434079       0.00000000
Si      -2.71565703      -2.71280628      -0.00082321       0.00000000
Si      -0.00130320       2.71421278      -2.71454659       0.00000000
Si      -0.00136836      -2.71524978      -2.71413499       0.00000000
Si       2.71451673      -2.71559187       0.00130342       0.00000000
