10
Lattice="16.28999089631971 0.0 0.0 0.0 16.28999089631971 0.0 0.0 0.0 34.3005442915855" Properties=species:S:1:pos:R:3:initial_magmoms:R:1 pbc="T T T"
Si       0.27447021       1.54928393       1.76181414       0.00000000
Si      -0.12577509       1.45582331      -1.87665243       0.00000000
Si      -2.27151018      -0.50570676       0.70240694       0.00000000
Si       1.89400572      -0.89436987      -1.29855073       0.00000000
Si       0.06343326      -2.24244882      -1.17565181       0.00000000
Si      -1.29508758       3.07676465       0.85590196       0.00000000
Si      -2.15161578       0.65085066      -2.77073092       0.00000000
Si      -1.66055373      -1.69937280      -2.69883693       0.00000000
Si       1.79942598       0.67487841      -3.04462091       0.00000000
Si      -3.15519381       1.67787882       0.50634492       0.00000000
