10
Lattice="16.28999089631971 0.0 0.0 0.0 16.28999089631971 0.0 0.0 0.0 34.3005442915855" Properties=species:S:1:pos:R:3:initial_magmoms:R:1 pbc="T T T"
Si       1.34547255       1.35285192       1.37577845       0.00000000
Si      -1.30693041       1.38466629      -1.38325940       0.00000000
Si      -1.36638891      -1.36301688       1.37691037       0.00000000
Si       1.50772095      -1.18369656      -1.54710633       0.00000000
Si      -2.53483803      -0.10052559      -2.77271833       0.00000000
Si       2.69972541      -2.69276958       0.00157097       0.00000000
Si       2.70555723       2.72657133      -0.01728062       0.00000000
Si      -2.72046258       2.71811682       0.01176509       0.00000000
Si      -2.71700910      -2.72290608       0.01202578       0.00000000
Si       2.70278435      -0.00216657       2.73812823       0.00000000
