10
Lattice="16.28999089631971 0.0 0.0 0.0 16.28999089631971 0.0 0.0 0.0 34.3005442915855" Properties=species:S:1:pos:R:3:initial_magmoms:R:1 pbc="T T T"
Si       1.56475224      -1.56444273       0.70717472       0.00000000
Si      -1.70867439      -0.90274293      -1.37675602       0.00000000
Si      -1.62170208       1.20969540       1.27464324       0.00000000
Si       1.39632993       1.50618969      -1.47053376       0.00000000
Si      -0.02884959       2.88104940       1.70964298       0.00000000
Si       0.25798473      -2.48815089       2.43578591       0.00000000
Si      -3.28456899       1.21178052      -0.57443154       0.00000000
Si       1.26301257      -3.04425891      -1.46401665       0.00000000
Si       0.56454624       3.55499928      -0.49022365       0.00000000
Si       3.15362997      -0.22530699       1.94326412       0.00000000
