10
Lattice="16.28999089631971 0.0 0.0 0.0 16.28999089631971 0.0 0.0 0.0 34.3005442915855" Properties=species:S:1:pos:R:3:initial_magmoms:R:1 pbc="T T T"
Si       1.28273976       0.90228681      -1.75766377       0.00000000
Si      -1.78912255       1.34454402       0.78675202       0.00000000
Si       0.04425993      -2.25895059       0.83700235       0.00000000
Si       1.42462566       0.26137305       2.16899613       0.00000000
Si       2.08150362      -2.01903147       2.01574121       0.00000000
Si       3.29119902      -0.35183142      -1.62673852       0.00000000
Si      -1.00854648       2.85017985       2.55988535       0.00000000
Si       0.55667817      -3.88094589      -0.71671027       0.00000000
Si      -0.03981276      -0.35836371       3.99015025       0.00000000
Si      -3.54932126       0.26507088       1.92861778       0.00000000
