10
Lattice="16.28999089631971 0.0 0.0 0.0 16.28999089631971 0.0 0.0 0.0 34.3005442915855" Properties=species:S:1:pos:R:3:initial_magmoms:R:1 pbc="T T T"
Si      -1.59285249      -1.67135400      -0.43499975       0.00000000
Si      -0.84131334       1.75306464       1.36324159       0.00000000
Si       0.59339583       0.67394988      -2.19986664       0.00000000
Si       1.93940595      -1.09191870       1.04623579       0.00000000
Si       0.02884959      -2.88104940      -1.70964298       0.00000000
Si       1.42517952      -1.37485971      -3.18017674       0.00000000
Si       0.96339060      -1.90070091       3.08293464       0.00000000
Si      -2.32218837      -2.47787190       1.66783060       0.00000000
Si       0.91489527       2.39471145       2.81460134       0.00000000
Si       3.63180663       0.63140040       1.19859889       0.00000000
