10
Lattice="16.28999089631971 0.0 0.0 0.0 16.28999089631971 0.0 0.0 0.0 34.3005442915855" Properties=species:S:1:pos:R:3:initial_magmoms:R:1 pbc="T T T"
Si      -0.57761082       0.81518418       2.16457136       0.00000000
Si       2.09144771      -1.15264782      -0.33371018       0.00000000
Si      -1.69240068      -1.72331910      -0.15236310       0.00000000
Si      -0.39143241       2.00968101      -1.33281699       0.00000000
Si      -2.71691136       1.76331105       1.61600245       0.00000000
Si       1.31087163      -2.65828365      -2.10684351       0.00000000
Si      -1.68089994       3.36411306       0.18381672       0.00000000
Si       0.68317558       2.80790730       2.46586751       0.00000000
Si       2.55714623      -2.23580250       1.81055524       0.00000000
Si      -3.63180663      -0.63140040      -1.19859889       0.00000000
