10
Lattice="16.28999089631971 0.0 0.0 0.0 16.28999089631971 0.0 0.0 0.0 34.3005442915855" Properties=species:S:1:pos:R:3:initial_magmoms:R:1 pbc="T T T"
Si       0.58150739      -1.93906386      -1.14954908       0.00000000
Si      -1.46568039      -0.68035185       1.68347165       0.00000000
Si       2.16904934       0.71177526       0.57782729       0.00000000
Si      -1.34045916       1.33520985      -1.48370517       0.00000000
Si      -2.69176353      -2.13962634       0.26788740       0.00000000
Si       1.66601414       2.83716414       1.29182782       0.00000000
Si       0.41973954       2.41468299      -2.62557093       0.00000000
Si       2.25312203      -1.18881162      -2.57532061       0.00000000
Si      -2.00658984       1.40186853       2.70552554       0.00000000
Si       2.89875989      -0.92113434       2.17101986       0.00000000
