10
Lattice="16.28999089631971 0.0 0.0 0.0 16.28999089631971 0.0 0.0 0.0 34.3005442915855" Properties=species:S:1:pos:R:3:initial_magmoms:R:1 pbc="T T T"
Si      -1.23340712      -1.94702967       0.34695020       0.00000000
Si       0.12465108       1.29769398       1.97516365       0.00000000
Si       2.03116752      -1.17268452      -0.39469658       0.00000000
Si      -0.92652307       1.40059791      -1.72751358       0.00000000
Si       3.27531627       0.78477075      -0.52212318       0.00000000
Si      -2.95157600       0.21255192      -2.02798651       0.00000000
Si      -1.81693752       0.53175447       3.23286241       0.00000000
Si      -0.38691356      -3.12987915       2.17993801       0.00000000
Si       1.95377373      -2.11045095      -2.56249219       0.00000000
Si       0.72102798       1.64784753      -3.44168424       0.00000000
