10
Lattice="16.28999089631971 0.0 0.0 0.0 16.28999089631971 0.0 0.0 0.0 34.3005442915855" Properties=species:S:1:pos:R:3:initial_magmoms:R:1 pbc="T T T"
Si       1.26000381      -1.34410419      -1.46014069       0.00000000
Si       1.33828052       1.18501605       1.54988609       0.00000000
Si      -0.74937488       1.70186517      -1.62190214       0.00000000
Si      -1.41719972      -1.48289499       1.42585868       0.00000000
Si      -2.73976853       2.12449293      -0.07930290       0.00000000
Si      -0.12339691      -1.50987123      -3.50510598       0.00000000
Si      -0.21936344       2.42737290       2.95568439       0.00000000
Si       3.25546365       2.09751669       0.24418571       0.00000000
Si       2.49229344      -0.32081526       2.97466633       0.00000000
Si       2.11830762      -3.26164896      -0.24130446       0.00000000
