10
Lattice="16.28999089631971 0.0 0.0 0.0 16.28999089631971 0.0 0.0 0.0 34.3005442915855" Properties=species:S:1:pos:R:3:initial_magmoms:R:1 pbc="T T T"
Si      -1.29013542       1.34576577       1.39713055       0.00000000
Si       1.33877736       1.35358497      -1.35274562       0.00000000
Si       1.24633161      -1.41700194       1.40176113       0.00000000
Si      -1.37075463      -1.36272366      -1.34698313       0.00000000
Si      -0.68266503      -2.11833531       2.65654434       0.00000000
Si      -2.40674976      -0.28836558       2.73862559       0.00000000
Si       2.69861769      -0.00296478      -2.70840679       0.00000000
Si       2.70353727       2.70350469       0.02349589       0.00000000
Si      -0.01658322       2.70933651      -2.70974451       0.00000000
Si      -0.01622484      -2.71937115      -2.70929861       0.00000000
