10
Lattice="16.28999089631971 0.0 0.0 0.0 16.28999089631971 0.0 0.0 0.0 34.3005442915855" Properties=species:S:1:pos:R:3:initial_magmoms:R:1 pbc="T T T"
Si       1.35452979      -1.35664749      -1.36231548       0.00000000
Si       1.37075463       1.36272366       1.34698313       0.00000000
Si      -1.36140091       1.35944937      -1.36245268       0.00000000
Si      -1.38281412      -1.35689184       1.34814935       0.00000000
Si       2.61708624      -0.05427828       2.74874425       0.00000000
Si       2.71274112      -2.71287144      -0.00380736       0.00000000
Si       2.70953199       2.71630863      -0.00576249       0.00000000
Si       2.71135647       0.00136836      -2.71876556       0.00000000
Si      -2.71660079       2.71363707      -0.00226384       0.00000000
Si      -2.72144717      -2.70976005      -0.00545379       0.00000000
