10
Lattice="16.28999089631971 0.0 0.0 0.0 16.28999089631971 0.0 0.0 0.0 34.3005442915855" Properties=species:S:1:pos:R:3:initial_magmoms:R:1 pbc="T T T"
Si      -1.75677876       0.11062539       1.52712969       0.00000000
Si       2.22628914       0.70550361       0.32935401       0.00000000
Si      -0.76937670       1.56051684      -1.60180201       0.00000000
Si       0.63863316      -2.29169349      -0.24713556       0.00000000
Si       2.77801515      -1.38608352      -0.73509538       0.00000000
Si       2.08292085       1.28739870       2.58080870       0.00000000
Si      -2.48835940       2.36532429       1.29512068       0.00000000
Si      -1.10837160      -3.10474368      -1.62471479       0.00000000
Si      -2.98234225       1.93896612      -0.96940252       0.00000000
Si       0.35476362       3.54434562      -1.05083206       0.00000000
