10
Lattice="16.28999089631971 0.0 0.0 0.0 16.28999089631971 0.0 0.0 0.0 34.3005442915855" Properties=species:S:1:pos:R:3:initial_magmoms:R:1 pbc="T T T"
Si       1.22877425      -1.48052058       1.31810205       0.00000000
Si      -1.34819691      -1.35480475      -1.35404904       0.00000000
Si       1.37023661       1.35565706      -1.35302003       0.00000000
Si      -1.38395346       1.35686252       1.36118356       0.00000000
Si       2.54085230      -0.11134052       2.73193698       0.00000000
Si      -2.70789063      -2.70722274       0.03471217       0.00000000
Si      -2.70554487       0.00010263      -2.71283156       0.00000000
Si       0.01134924      -2.71300569      -2.71193975       0.00000000
Si       0.00879497       2.71456886      -2.71217985       0.00000000
Si       2.72492930      -0.00054409      -2.71368908       0.00000000
