10
Lattice="16.28999089631971 0.0 0.0 0.0 16.28999089631971 0.0 0.0 0.0 34.3005442915855" Properties=species:S:1:pos:R:3:initial_magmoms:R:1 pbc="T T T"
Si       1.35045211       1.35845568       1.38671004       0.00000000
Si      -1.36404574      -1.35459495       1.38667574       0.00000000
Si      -1.43997343       1.39329999      -1.33129748       0.00000000
Si       1.31573649      -1.41493311      -1.54485279       0.00000000
Si       2.70561069       2.71041165      -0.00572476       0.00000000
Si       2.72085813      -2.71515204      -0.01166905       0.00000000
Si      -2.71538269      -2.72873790       0.01221443       0.00000000
Si       2.70896643       0.00259011       2.74727619       0.00000000
Si      -0.00619536      -2.71293660       2.74833951       0.00000000
Si      -2.73201478       2.73209211       0.04118126       0.00000000
