10
Lattice="16.28999089631971 0.0 0.0 0.0 16.28999089631971 0.0 0.0 0.0 34.3005442915855" Properties=species:S:1:pos:R:3:initial_magmoms:R:1 pbc="T T T"
Si      -1.34428395      -1.36899531      -1.39582713       0.00000000
Si       1.36995479       1.34535852      -1.39685615       0.00000000
Si       1.45293605      -1.37414295       1.35055039       0.00000000
Si      -1.46920392       1.43925408       1.64186507       0.00000000
Si      -2.70274788      -2.70487305      -0.01399463       0.00000000
Si      -2.70693441       2.71331127      -0.00799203       0.00000000
Si       2.72593439       2.70249471      -0.03587839       0.00000000
Si      -2.70294336      -0.00930159      -2.75433525       0.00000000
Si       0.01230547       2.70752832      -2.75464395       0.00000000
Si       2.74307147      -2.71990872      -0.04658017       0.00000000
