10
Lattice="16.28999089631971 0.0 0.0 0.0 16.28999089631971 0.0 0.0 0.0 34.3005442915855" Properties=species:S:1:pos:R:3:initial_magmoms:R:1 pbc="T T T"
Si      -1.78587759       1.22753295      -1.05220408       0.00000000
Si       1.26172566      -1.62588861      -1.26966966       0.00000000
Si      -0.53015805      -1.83019779       1.53693965       0.00000000
Si       1.50390909       1.94927769       0.26075288       0.00000000
Si       0.51129423       2.33754984       2.39627166       0.00000000
Si       2.45035809      -0.11142360      -2.69516677       0.00000000
Si      -0.57259350       2.34186669      -2.75306613       0.00000000
Si       3.74801949      -0.66761307      -0.08396778       0.00000000
Si      -1.56304505       1.49353236       3.20391273       0.00000000
Si      -1.42944750      -0.84900222       3.52235916       0.00000000
