10
Lattice="16.28999089631971 0.0 0.0 0.0 16.28999089631971 0.0 0.0 0.0 34.3005442915855" Properties=species:S:1:pos:R:3:initial_magmoms:R:1 pbc="T T T"
Si       1.78515594      -0.64311291       1.38673748       0.00000000
Si      -0.13359755       2.34253458      -0.31844643       0.00000000
Si      -2.12231726      -0.98126073       0.42937445       0.00000000
Si       0.89928945      -0.98119557      -1.98541951       0.00000000
Si      -0.96889010       3.17340603       1.73862696       0.00000000
Si       1.16525628      -0.56148372       3.59565947       0.00000000
Si       2.37283398      -2.85979095       0.92402288       0.00000000
Si      -2.90290148      -1.51643610      -2.03573844       0.00000000
Si       3.75890121       0.54094203       0.77948030       0.00000000
Si      -1.73088485      -2.99094174       1.76219145       0.00000000
