10
Lattice="16.290000149 0.0 0.0 0.0 16.290000149 0.0 0.0 0.0 29.1751946751" Properties=species:S:1:pos:R:3:initial_magmoms:R:1 pbc="T T T"
Si      -1.36200691       1.37013562       1.26214810       0.00000000
Si      -1.41977125      -1.30994407      -1.31448840       0.00000000
Si       1.33815835       1.44736651      -1.25578790       0.00000000
Si       1.29725416      -1.30342807       1.46059777       0.00000000
Si      -2.77759164       0.04404816       2.50063511       0.00000000
Si       2.68237658       0.08241111      -2.60677447       0.00000000
Si      -0.04101822      -2.65691531      -2.63662069       0.00000000
Si       2.68032404      -2.64702728       0.12434468       0.00000000
Si      -0.04935870       2.79041187      -2.60204809       0.00000000
Si      -2.78216913       0.08423559      -2.61929063       0.00000000
