10
Lattice="16.290000149 0.0 0.0 0.0 16.290000149 0.0 0.0 0.0 29.1751946751" Properties=species:S:1:pos:R:3:initial_magmoms:R:1 pbc="T T T"
H        0.45828657       1.28490634      -0.65609178       0.00000000
Si      -0.82031554       0.99176779       1.93974199       0.00000000
Si      -1.88097374      -0.69695137      -1.27618137       0.00000000
Si       2.00353970      -1.39621591      -0.07947323       0.00000000
H        0.95720041      -0.24702156      -2.47251022       0.00000000
H       -0.69242275      -2.66712914      -1.05955554       0.00000000
Si       3.16066728       0.68093830      -0.65865919       0.00000000
Si      -2.32406174       2.30544227       0.64748510       0.00000000
Si       0.75214189      -2.95818258      -1.49762109       0.00000000
Si       1.99756127       0.85481776      -2.68306760       0.00000000
