10
Lattice="16.290000149 0.0 0.0 0.0 16.290000149 0.0 0.0 0.0 29.1751946751" Properties=species:S:1:pos:R:3:initial_magmoms:R:1 pbc="T T T"
Si       1.22489398      -1.53313336       1.23962485       0.00000000
Si      -1.38662110      -1.35286822      -1.29225690       0.00000000
Si      -1.06064191       1.46456875       1.47807371       0.00000000
Si       1.37627695       1.31971807      -1.35603387       0.00000000
Si       0.76088962       2.22071798       2.85120425       0.00000000
Si      -2.37739520       0.10208943       2.85747692       0.00000000
Si      -0.01901043       2.60328863      -2.71466434       0.00000000
Si      -0.02510289      -2.69992091      -2.62562164       0.00000000
Si      -2.74131380       0.00602730      -2.59498769       0.00000000
Si      -2.50545089       2.81797455       0.19702009       0.00000000
