10
Lattice="16.290000149 0.0 0.0 0.0 16.290000149 0.0 0.0 0.0 29.1751946751" Properties=species:S:1:pos:R:3:initial_magmoms:R:1 pbc="T T T"
Si       1.08307324      -1.41908707      -1.49910903       0.00000000
Si      -1.54531828       1.32473539      -1.18468796       0.00000000
Si      -1.05552685      -1.76171465       1.18340425       0.00000000
Si       2.12706677       0.97060708       0.67861503       0.00000000
Si       0.21641265       0.80720209       3.38779443       0.00000000
Si       2.38003418      -2.71239905      -0.07378407       0.00000000
Si      -0.20162133       2.70275537      -2.49900130       0.00000000
Si       2.49865796      -0.09299961      -2.73759604       0.00000000
Si      -1.40520799      -0.88083289       3.31984540       0.00000000
Si       0.54740916      -3.53763417       1.08724280       0.00000000
