10
Lattice="16.290000149 0.0 0.0 0.0 16.290000149 0.0 0.0 0.0 29.1751946751" Properties=species:S:1:pos:R:3:initial_magmoms:R:1 pbc="T T T"
Si       1.34366437       1.35707919      -1.36496148       0.00000000
Si      -1.35646831      -1.36235715      -1.35136584       0.00000000
Si       1.38978136      -1.34847807       1.33342310       0.00000000
Si      -1.38417760       1.35466827       1.33502773       0.00000000
Si       0.02622690      -2.69869102       2.68338853       0.00000000
Si      -0.02868669       2.72232781       2.67320639       0.00000000
Si       2.70433550      -0.00041214      -2.70273168       0.00000000
Si      -2.70102212       0.00042843      -2.70722466       0.00000000
Si       2.71712315       2.70334996      -0.02109367       0.00000000
Si       2.70989039      -2.71726162      -0.05006463       0.00000000
