10
Lattice="16.290000149 0.0 0.0 0.0 16.290000149 0.0 0.0 0.0 29.1751946751" Properties=species:S:1:pos:R:3:initial_magmoms:R:1 pbc="T T T"
H       -1.04036086      -1.10183932       0.21055738       0.00000000
Si       1.49352423      -1.08155827      -1.41663075       0.00000000
Si       1.16310601      -0.17387946       2.02440841       0.00000000
Si      -1.25954281       1.64418230      -1.15767172       0.00000000
H       -1.53927469       0.43008858       2.02697583       0.00000000
Si       0.00597843      -2.25103367       2.60359437       0.00000000
Si      -1.99756127      -0.85481776       2.68306760       0.00000000
Si      -2.56069028      -0.02301777      -2.33696227       0.00000000
Si       0.06382422      -2.50616765      -2.59405408       0.00000000
Si       3.04593681      -2.17603451      -0.03976579       0.00000000
