10
Lattice="16.290000149 0.0 0.0 0.0 16.290000149 0.0 0.0 0.0 29.1751946751" Properties=species:S:1:pos:R:3:initial_magmoms:R:1 pbc="T T T"
Si       1.35549091       1.36765954       1.33817865       0.00000000
Si      -1.32807484       1.36120870      -1.37453095       0.00000000
Si       1.38417760      -1.35466827      -1.33502773       0.00000000
Si      -1.34705106      -1.35378046       1.37677744       0.00000000
Si       2.71026506       0.00052128       2.67545288       0.00000000
Si      -2.69793353      -0.00768888      -2.70031014       0.00000000
Si       0.05851368      -2.69296508       2.70990878       0.00000000
Si       0.02770929      -2.71702541      -2.68639358       0.00000000
Si      -2.69358410       2.71231760      -0.02441964       0.00000000
Si      -0.02241504       2.71360451       2.69552541       0.00000000
