10
Lattice="16.290000149 0.0 0.0 0.0 16.290000149 0.0 0.0 0.0 29.1751946751" Properties=species:S:1:pos:R:3:initial_magmoms:R:1 pbc="T T T"
Si      -1.29775915      -1.36516717       1.39465089       0.00000000
Si      -1.39347919       1.48387240      -1.18312052       0.00000000
Si       1.37554390       1.38403099       1.33618088       0.00000000
Si       0.94286521      -1.26465787      -1.76507813       0.00000000
Si       2.32481108       0.17181063      -2.95180834       0.00000000
Si      -2.72619668       0.01081656       2.68341260       0.00000000
Si       2.71192664       0.01656693       2.71128366       0.00000000
Si      -0.00421911       2.72875422       2.71418660       0.00000000
Si      -2.12692016      -3.20210904       0.18968267       0.00000000
Si       0.07579737      -2.63099792       2.81571044       0.00000000
