10
Lattice="16.290000149 0.0 0.0 0.0 16.290000149 0.0 0.0 0.0 29.1751946751" Properties=species:S:1:pos:R:3:initial_magmoms:R:1 pbc="T T T"
Si      -0.95390820       0.79015460       1.99605012       0.00000000
Si      -1.86375358      -0.89350651      -1.12870076       0.00000000
Si       1.35488981       1.39233075      -1.33324805       0.00000000
Si       1.84280790      -1.16739843       0.93039696       0.00000000
H        2.64378720       1.44146139      -0.52690402       0.00000000
H       -2.90693261       0.22318929      -1.10404772       0.00000000
Si       0.53008964      -2.59643869       2.27843683       0.00000000
Si       1.96084524      -0.12088158      -3.09402940       0.00000000
Si       0.35421302       2.74659991       2.52213723       0.00000000
Si      -0.64601856      -1.01447491       3.57148146       0.00000000
