10
Lattice="16.290000149 0.0 0.0 0.0 16.290000149 0.0 0.0 0.0 29.1751946751" Properties=species:S:1:pos:R:3:initial_magmoms:R:1 pbc="T T T"
Si       1.41825628      -1.33367860      -1.29902554       0.00000000
Si       1.37557648       1.32452362       1.36569086       0.00000000
Si      -1.34882830      -1.37617921       1.34862337       0.00000000
Si      -1.35182566       1.31756779      -1.41152509       0.00000000
Si       0.10386504      -2.68928354      -2.64978746       0.00000000
Si       0.00817758       2.70500339       2.68866924       0.00000000
Si      -2.70974378       2.69171075      -0.05727091       0.00000000
Si      -2.71738379      -0.01277136       2.68598512       0.00000000
Si       2.75841831       2.64468152       0.00767308       0.00000000
Si       0.02384856       2.67046859      -2.75131130       0.00000000
