10
Lattice="16.290000149 0.0 0.0 0.0 16.290000149 0.0 0.0 0.0 29.1751946751" Properties=species:S:1:pos:R:3:initial_magmoms:R:1 pbc="T T T"
Si       1.34773850       1.32695083      -1.38288672       0.00000000
Si      -1.32815503      -1.36228384      -1.38095532       0.00000000
Si      -1.35441414       1.38712609       1.33552371       0.00000000
Si       1.36639055      -1.34664544       1.36866673       0.00000000
Si      -2.62562060      -2.67017537       0.09604474       0.00000000
Si       2.70493986       2.69785208      -0.01382904       0.00000000
Si      -0.04117298       2.67022424      -2.74560463       0.00000000
Si      -2.69517890       0.03821634       2.72563421       0.00000000
Si       0.00629609       2.71836119       2.71743598       0.00000000
Si      -2.72355608       0.00346977      -2.72223530       0.00000000
