10
Lattice="16.290000149 0.0 0.0 0.0 16.290000149 0.0 0.0 0.0 29.1751946751" Properties=species:S:1:pos:R:3:initial_magmoms:R:1 pbc="T T T"
Si      -1.48616929       1.80059888      -0.11725511       0.00000000
Si       1.12404259      -1.11659806      -1.75132859       0.00000000
Si      -1.65848492      -1.52607979       0.73191811       0.00000000
Si       1.86150719       0.84255139       1.25444585       0.00000000
H       -0.73353871       0.55356679       2.49506265       0.00000000
H       -1.38699577       0.97109578       2.43863782       0.00000000
Si       2.46436751      -2.53177553      -0.37971516       0.00000000
H        1.36821340       3.21857823      -0.95869690       0.00000000
H        0.79350220       3.34173063       1.36907519       0.00000000
Si       2.55430460       2.70451469      -0.16052192       0.00000000
