10
Lattice="16.290000149 0.0 0.0 0.0 16.290000149 0.0 0.0 0.0 29.1751946751" Properties=species:S:1:pos:R:3:initial_magmoms:R:1 pbc="T T T"
Si      -1.46464043      -1.38336310       1.21616799       0.00000000
Si       1.33858189      -1.32898708      -1.41094159       0.00000000
Si      -1.34665685       1.35247726      -1.38827246       0.00000000
Si       1.41082804       1.39452175       1.30214729       0.00000000
Si      -0.11383452       2.66188376       2.51796518       0.00000000
Si      -0.04968450      -2.61019559       2.59431666       0.00000000
Si       2.75775042       2.68333769      -0.07182933       0.00000000
Si      -2.80389999      -0.07869699       2.63807945       0.00000000
Si      -0.01050705       2.70280424      -2.75982754       0.00000000
Si       2.75836944      -2.70185942      -0.15850883       0.00000000
