10
Lattice="16.290000149 0.0 0.0 0.0 16.290000149 0.0 0.0 0.0 29.1751946751" Properties=species:S:1:pos:R:3:initial_magmoms:R:1 pbc="T T T"
Si       1.37547874       1.34358292      -1.34074607       0.00000000
Si       1.36239787      -1.39417966       1.30480223       0.00000000
Si      -1.35487189      -1.35286822      -1.36125623       0.00000000
Si      -1.35224920       1.36985869       1.35107409       0.00000000
Si       0.00645084       2.69192252      -2.68230905       0.00000000
Si       2.78216913      -0.08423559       2.61929063       0.00000000
Si      -2.74131380       0.01053963       2.66457053       0.00000000
Si       0.01335780      -2.75201634       2.65826869       0.00000000
Si       0.01252701      -2.73334799      -2.68423461       0.00000000
Si       0.02436984       2.73588924       2.68799821       0.00000000
