10
Lattice="16.290000149 0.0 0.0 0.0 16.290000149 0.0 0.0 0.0 29.1751946751" Properties=species:S:1:pos:R:3:initial_magmoms:R:1 pbc="T T T"
Si       1.51817914      -1.29174814      -1.19250691       0.00000000
Si       1.40235724       1.31838229       1.36007464       0.00000000
Si      -1.21349098      -1.43786944       1.43949827       0.00000000
Si      -1.45818307       1.21047733      -1.46471147       0.00000000
H        0.32118993      -1.80252110      -2.25232503       0.00000000
Si      -2.65383650       2.68234400      -0.03150921       0.00000000
Si       2.84995768       2.50576040      -0.05989667       0.00000000
Si      -2.63353916      -0.06623514       2.73311473       0.00000000
Si      -0.12588912       2.53480547      -2.86949710       0.00000000
Si       0.07359822       2.75848347       2.67486937       0.00000000
