10
Lattice="16.290000149 0.0 0.0 0.0 16.290000149 0.0 0.0 0.0 29.1751946751" Properties=species:S:1:pos:R:3:initial_magmoms:R:1 pbc="T T T"
Si      -1.40136355      -1.34482096      -1.26316923       0.00000000
Si       1.32584148      -1.41073030       1.31288376       0.00000000
Si      -1.42346908       1.35765748       1.27603549       0.00000000
Si       1.29746556       1.30789153      -1.47700007       0.00000000
Si       2.62562060       2.67017537      -0.09604474       0.00000000
Si       2.66105786      -0.03341079       2.65783106       0.00000000
Si      -0.06955830       2.70839171       2.62958947       0.00000000
Si      -0.14962365      -2.75442726      -2.61984496       0.00000000
Si      -2.75384082      -0.02850750       2.65535117       0.00000000
Si       2.67627435      -2.73302220      -0.09823288       0.00000000
