10
Lattice="16.290000149 0.0 0.0 0.0 16.290000149 0.0 0.0 0.0 29.1751946751" Properties=species:S:1:pos:R:3:initial_magmoms:R:1 pbc="T T T"
Si      -0.84088981       1.24294330      -1.71097929       0.00000000
Si      -1.83024668      -1.01792953       0.94788457       0.00000000
Si       1.03680964       1.85132594       0.95628994       0.00000000
Si       1.74765638      -1.54150642      -0.45171516       0.00000000
H       -1.01838565       2.62961327      -1.09841690       0.00000000
Si      -0.42430563      -2.38573568       2.19941873       0.00000000
Si       1.50881239      -1.02304459      -2.75212529       0.00000000
Si       2.45695556       0.50942675       2.20952502       0.00000000
Si       1.05340915       1.26016835      -3.04974145       0.00000000
Si       0.99830008      -0.92758519       3.42440930       0.00000000
