10
Lattice="16.290000149 0.0 0.0 0.0 16.290000149 0.0 0.0 0.0 29.1751946751" Properties=species:S:1:pos:R:3:initial_magmoms:R:1 pbc="T T T"
Si       1.35391078       1.35073423       1.35355398       0.00000000
Si       1.42346908      -1.35765748      -1.27603549       0.00000000
Si      -1.34032492       1.33933123      -1.41464684       0.00000000
Si      -1.33037173      -1.38616498       1.37931568       0.00000000
Si       0.02210553      -2.70247844      -2.53920472       0.00000000
Si      -2.69193881       2.61777044       0.04061187       0.00000000
Si       2.69467553       2.69964398      -0.03655652       0.00000000
Si       2.69731451      -0.03106503       2.70760394       0.00000000
Si       0.00744453       2.68099193       2.73934655       0.00000000
Si      -2.71036280      -0.06862977      -2.72127544       0.00000000
