10
Lattice="16.290000149 0.0 0.0 0.0 16.290000149 0.0 0.0 0.0 29.1751946751" Properties=species:S:1:pos:R:3:initial_magmoms:R:1 pbc="T T T"
Si      -1.34725795      -1.34627077       1.36834581       0.00000000
Si       1.35138583      -1.36677988      -1.36291922       0.00000000
Si      -1.36688740       1.34887717      -1.36805405       0.00000000
Si       1.32973642       1.34936587       1.41298385       0.00000000
Si      -2.64800648       2.69633711       0.08676703       0.00000000
Si       0.04720842       2.73571004      -2.62368733       0.00000000
Si       2.70516629       0.04171869      -2.67240407       0.00000000
Si      -2.70796817      -2.67750587      -0.01356647       0.00000000
Si       2.71611317       2.71365338       0.11194522       0.00000000
Si       0.00387702      -2.70396083       2.72855173       0.00000000
