10
Lattice="16.290000149 0.0 0.0 0.0 16.290000149 0.0 0.0 0.0 29.1751946751" Properties=species:S:1:pos:R:3:initial_magmoms:R:1 pbc="T T T"
Si      -1.31378851       0.45553356      -0.60596879       0.00000000
H        0.57471121      -0.12315240      -2.32777208       0.00000000
Si       1.76080241      -0.63721594      -1.52959711       0.00000000
Si       1.06800499      -2.49917924      -0.11462934       0.00000000
Si      -2.57075750       0.70208272       1.33240197       0.00000000
Si      -2.27967149      -1.54113175      -1.48633029       0.00000000
Si       0.44295768      -2.16596729       2.21425140       0.00000000
Si      -1.33594291      -0.61931323       2.83932995       0.00000000
Si      -1.04746330       2.48609837      -1.79958436       0.00000000
Si       3.06194988       1.02998413      -0.35030656       0.00000000
