10
Lattice="16.290000149 0.0 0.0 0.0 16.290000149 0.0 0.0 0.0 29.1751946751" Properties=species:S:1:pos:R:3:initial_magmoms:R:1 pbc="T T T"
Si       1.35904213       1.36519975       1.33135166       0.00000000
Si       1.36505314      -1.34680834      -1.35121997       0.00000000
Si      -1.32854725       1.36676359      -1.37677744       0.00000000
Si      -1.35540946      -1.37749870       1.35676325       0.00000000
Si       2.69508278      -0.01014867       2.68499317       0.00000000
Si      -0.00524538      -2.69601131      -2.68773563       0.00000000
Si      -2.71202438       0.00350235      -2.67822452       0.00000000
Si      -2.71477739       2.68130144      -0.01875965       0.00000000
Si       0.01154961       2.71309952       2.69774273       0.00000000
Si       2.69073335      -2.73015516       0.00910266       0.00000000
