10
Lattice="16.290000149 0.0 0.0 0.0 16.290000149 0.0 0.0 0.0 29.1751946751" Properties=species:S:1:pos:R:3:initial_magmoms:R:1 pbc="T T T"
Si      -1.38306988       1.34359921       1.33625309       0.00000000
Si      -1.36546039      -1.33952671      -1.37266373       0.00000000
Si       1.34485354       1.37156914      -1.36230654       0.00000000
Si       1.34008057      -1.36537894       1.37561043       0.00000000
Si      -2.68032404       2.64702728      -0.12434468       0.00000000
Si       2.66039649      -2.70208748      -0.03095488       0.00000000
Si       0.00469152       2.70202232       2.66728382       0.00000000
Si      -2.73150722      -0.04753422       2.68207565       0.00000000
Si       2.73141600       0.01029528       2.68764811       0.00000000
Si      -0.01796787      -2.68742648      -2.73905480       0.00000000
