10
Lattice="16.290000149 0.0 0.0 0.0 16.290000149 0.0 0.0 0.0 29.1751946751" Properties=species:S:1:pos:R:3:initial_magmoms:R:1 pbc="T T T"
Si       1.34749252      -1.34789977      -1.36639107       0.00000000
Si      -1.35397594      -1.37474569       1.34290504       0.00000000
Si      -1.35588187       1.32963868      -1.38830164       0.00000000
Si       1.36546039       1.33952671       1.37266373       0.00000000
Si      -2.72647361      -0.01565469       2.66480393       0.00000000
Si      -0.01760949       2.68312592       2.70891683       0.00000000
Si       2.68353317      -2.72324819      -0.01274956       0.00000000
Si      -0.01154961      -2.71309952      -2.69774273       0.00000000
Si      -2.73463490       2.67660992      -0.06616934       0.00000000
Si       2.71031393       2.71109585       0.01035719       0.00000000
