10
Lattice="16.290000149 0.0 0.0 0.0 16.290000149 0.0 0.0 0.0 29.1751946751" Properties=species:S:1:pos:R:3:initial_magmoms:R:1 pbc="T T T"
Si      -1.35983708      -1.35005005       1.35445841       0.00000000
Si      -1.38873392       1.34933329      -1.33062228       0.00000000
Si       1.31841487      -1.36280512      -1.39092741       0.00000000
Si       1.36940257       1.36132273       1.35273708       0.00000000
Si      -0.01329264       2.69765660      -2.68201730       0.00000000
Si       0.01068624      -2.69210171       2.71165929       0.00000000
Si       2.68506443      -2.72005535      -0.06223069       0.00000000
Si       2.68675859      -0.01878237      -2.73415337       0.00000000
Si      -2.69837982       0.01257588       2.72782235       0.00000000
Si      -2.70257873      -0.01845657      -2.72435050       0.00000000
