10
Lattice="16.290000149 0.0 0.0 0.0 16.290000149 0.0 0.0 0.0 29.1751946751" Properties=species:S:1:pos:R:3:initial_magmoms:R:1 pbc="T T T"
Si      -1.43456257       1.34739967      -1.26124367       0.00000000
Si      -1.37881819      -1.34312680       1.33663237       0.00000000
Si       1.34672689       1.38695993       1.34039597       0.00000000
Si       1.35503479      -1.32978529      -1.39941739       0.00000000
Si      -0.10700901       2.68876226      -2.59338597       0.00000000
Si      -0.00979029      -2.69146640       2.67819535       0.00000000
Si       2.70164765      -2.67478544      -0.03433920       0.00000000
Si       2.70703964       0.03420900       2.69324975       0.00000000
Si      -2.73009000       0.03292209       2.68502234       0.00000000
Si      -0.06757092      -2.78793579      -2.62440796       0.00000000
