10
Lattice="16.290000149 0.0 0.0 0.0 16.290000149 0.0 0.0 0.0 29.1751946751" Properties=species:S:1:pos:R:3:initial_magmoms:R:1 pbc="T T T"
Si      -1.88643089      -1.34179102      -0.39068503       0.00000000
Si       0.51965100       1.25216181      -1.93393613       0.00000000
H       -0.89792110      -0.99002476       2.06423255       0.00000000
Si       1.93318319      -1.49351608       0.31220376       0.00000000
Si      -1.62999370       1.52699529       1.07288861       0.00000000
H       -2.78625792      -1.41959206       0.83201820       0.00000000
Si       0.18407700       2.84855088       1.67678596       0.00000000
Si      -2.78238090       0.08070066      -1.97997459       0.00000000
Si      -0.00452862      -1.83332549       2.95145022       0.00000000
Si       1.54854370      -0.37149345      -3.25148792       0.00000000
