10
Lattice="16.290000149 0.0 0.0 0.0 16.290000149 0.0 0.0 0.0 29.1751946751" Properties=species:S:1:pos:R:3:initial_magmoms:R:1 pbc="T T T"
Si       1.32815503       1.36228384       1.38095532       0.00000000
Si      -1.29746556      -1.30789153       1.47700007       0.00000000
Si      -1.39540104       1.36575361      -1.34127998       0.00000000
Si       1.39359196      -1.34490241      -1.38644318       0.00000000
Si      -0.13475051      -2.74035270      -2.51225063       0.00000000
Si       0.05219939       2.55313172      -2.76125129       0.00000000
Si      -2.69882912      -2.65271249       0.21383084       0.00000000
Si       2.67589353       2.68923467      -0.00193140       0.00000000
Si       2.74781388      -2.67651218       0.01027259       0.00000000
Si       2.69454558       0.01563840       2.74962206       0.00000000
