10
Lattice="16.290000149 0.0 0.0 0.0 16.290000149 0.0 0.0 0.0 29.1751946751" Properties=species:S:1:pos:R:3:initial_magmoms:R:1 pbc="T T T"
Si      -1.67122370       1.68256154       0.25268636       0.00000000
Si       0.33684462      -0.24545772       2.36012737       0.00000000
Si       1.64608823       1.06137496      -1.41937322       0.00000000
Si      -1.06836337      -1.69176539      -1.38147464       0.00000000
H        1.88805011      -1.62482977       0.26493994       0.00000000
H        0.54190314       2.46570329       1.38523824       0.00000000
H       -1.10772001       0.04559571       2.79819292       0.00000000
Si      -2.40868829      -0.27658791      -2.75308807       0.00000000
Si       0.35442153       2.47331072      -2.78202986       0.00000000
Si      -3.53273088       0.84001015      -1.00175948       0.00000000
