10
Lattice="16.290000149 0.0 0.0 0.0 16.290000149 0.0 0.0 0.0 29.1751946751" Properties=species:S:1:pos:R:3:initial_magmoms:R:1 pbc="T T T"
Si       1.31113049       1.33766069      -1.36604097       0.00000000
Si      -1.27651699      -1.46235331      -1.29826699       0.00000000
Si      -1.30561093       1.41219233       1.33575711       0.00000000
Si       1.23279463      -1.48999744       1.36303592       0.00000000
H       -1.92342548      -2.28801197      -0.22126468       0.00000000
Si      -2.59509476      -0.02656899       2.61719001       0.00000000
Si       2.54347664       2.69757027       0.07961911       0.00000000
Si      -0.15811074       2.63040986      -2.63863378       0.00000000
Si       2.69003777      -0.05882319      -2.66331600       0.00000000
Si       2.57205419      -2.79466356      -0.05887554       0.00000000
