10
Lattice="16.290000149 0.0 0.0 0.0 16.290000149 0.0 0.0 0.0 29.1751946751" Properties=species:S:1:pos:R:3:initial_magmoms:R:1 pbc="T T T"
Si       2.23358708      -0.50143878       0.32521589       0.00000000
Si      -1.05041179       0.68106699       2.06572048       0.00000000
Si      -0.05393619       2.06923727      -1.28855165       0.00000000
Si      -0.65542816      -1.77526793      -1.58088710       0.00000000
Si      -2.36258759       1.99207968      -0.92788789       0.00000000
H       -0.65886535      -2.93829249       1.54485573       0.00000000
Si       2.79104718      -1.54013806      -1.68407976       0.00000000
Si      -3.12072420       1.40059629       1.22223643       0.00000000
Si       3.47881098       1.28230646      -0.52031042       0.00000000
Si       1.16942653      -3.22817304      -1.75202879       0.00000000
