10
Lattice="16.290000149 0.0 0.0 0.0 16.290000149 0.0 0.0 0.0 29.1751946751" Properties=species:S:1:pos:R:3:initial_magmoms:R:1 pbc="T T T"
Si      -1.44472753       1.19224882       1.35895081       0.00000000
Si      -1.34509789      -1.35542575      -1.34914853       0.00000000
Si       1.28596519      -1.47040057       1.35538764       0.00000000
Si       1.30535029       1.38310246      -1.47769444       0.00000000
Si       2.18268083      -0.47550510      -2.59195347       0.00000000
Si       0.41824575      -2.10131228      -2.69050728       0.00000000
Si      -0.02231730       2.55829565       2.63901598       0.00000000
Si      -2.80276457       2.43527357      -0.09382743       0.00000000
Si       2.69464295      -0.17928774       2.69940571       0.00000000
Si      -2.79293030      -0.26422380       2.59520650       0.00000000
