10
Lattice="16.290000149 0.0 0.0 0.0 16.290000149 0.0 0.0 0.0 29.1751946751" Properties=species:S:1:pos:R:3:initial_magmoms:R:1 pbc="T T T"
Si       0.17749584      -1.38666997      -0.61256239       0.00000000
Si      -0.69706540       1.83127295       1.91232898       0.00000000
Si      -0.50194377       1.28117593      -2.40030162       0.00000000
Si      -2.54493785       0.97036273       0.71727216       0.00000000
Si      -2.45206856       0.26585280      -1.50824086       0.00000000
Si       1.21774267       2.61995330       0.79980879       0.00000000
Si       2.05519529      -0.77828734       2.05470685       0.00000000
Si       1.01838565      -2.62961327       1.09841690       0.00000000
Si       2.91983592       0.94881106       0.67430760       0.00000000
Si       2.07179480      -1.36944493      -1.95132455       0.00000000
