10
Lattice="16.290000149 0.0 0.0 0.0 16.290000149 0.0 0.0 0.0 29.1751946751" Properties=species:S:1:pos:R:3:initial_magmoms:R:1 pbc="T T T"
Si       1.41558472       1.32608746      -1.23848701       0.00000000
Si      -1.42589629      -1.39004200      -1.17955312       0.00000000
Si       1.29696094      -1.29331198       1.42532496       0.00000000
Si      -1.08307324       1.41908707       1.49910903       0.00000000
H        2.14099472      -0.36039996       2.23732898       0.00000000
Si      -0.53566407      -2.11854710       2.58635183       0.00000000
Si       1.04399353       2.38969415       2.17772406       0.00000000
Si      -2.13860009      -0.34262757       2.68251327       0.00000000
Si       2.64626165       2.46308060       0.38750494       0.00000000
Si       0.00878031      -2.71182890      -2.46165705       0.00000000
