10
Lattice="16.290000149 0.0 0.0 0.0 16.290000149 0.0 0.0 0.0 29.1751946751" Properties=species:S:1:pos:R:3:initial_magmoms:R:1 pbc="T T T"
Si      -1.36970557       1.23909886      -1.44452224       0.00000000
Si       1.19842273      -1.40263417      -1.47495197       0.00000000
Si      -1.36896600      -1.42574968       1.29969657       0.00000000
Si       1.43428564       1.40931307       1.31705581       0.00000000
Si      -0.07012845       2.73774630       2.57088898       0.00000000
Si       2.55311543      -2.76152970      -0.17222117       0.00000000
Si       0.05893722      -2.64575666       2.67784524       0.00000000
Si      -2.77293270       2.55756260      -0.12980044       0.00000000
Si       2.73792548       2.64608246      -0.18193651       0.00000000
Si      -0.03777651       2.63692748      -2.78588099       0.00000000
