10
Lattice="16.290000149 0.0 0.0 0.0 16.290000149 0.0 0.0 0.0 29.1751946751" Properties=species:S:1:pos:R:3:initial_magmoms:R:1 pbc="T T T"
Si      -1.16310601       0.17387946      -2.02440841       0.00000000
Si       0.23427301       1.86375521       1.42415795       0.00000000
Si       2.32497398      -0.20352726      -0.56559032       0.00000000
Si      -1.15712758      -2.07715421       0.57918596       0.00000000
H       -2.70238070       0.60396805       0.00256742       0.00000000
H       -2.20346687      -0.92795986      -1.81385103       0.00000000
Si      -3.16066728      -0.68093830       0.65865919       0.00000000
Si       1.67747906       0.66995884       2.86024856       0.00000000
Si       1.88283080      -2.00215505      -2.06417420       0.00000000
Si       0.33041822      -0.90767881      -3.44103916       0.00000000
