10
Lattice="16.290000149 0.0 0.0 0.0 16.290000149 0.0 0.0 0.0 29.1751946751" Properties=species:S:1:pos:R:3:initial_magmoms:R:1 pbc="T T T"
Si       0.63239410      -0.40369878       2.14566052       0.00000000
Si       1.83262502       0.82523512      -1.16102687       0.00000000
Si      -0.87928534      -1.89027533      -1.06647007       0.00000000
Si      -1.60293601       1.77591953       0.09616144       0.00000000
H        2.67665879       1.75814714      -0.34902285       0.00000000
Si      -2.27457272      -0.60670477      -2.42510053       0.00000000
Si       0.53566407       2.11854710      -2.58635183       0.00000000
Si      -1.49467267      -0.98927542       3.14076806       0.00000000
Si      -3.45737334       0.84475054      -1.01240843       0.00000000
Si      -0.54740916       3.53763417      -1.08724280       0.00000000
