10
Lattice="16.290000149 0.0 0.0 0.0 16.290000149 0.0 0.0 0.0 29.1751946751" Properties=species:S:1:pos:R:3:initial_magmoms:R:1 pbc="T T T"
Si       1.34232371       1.36068742       1.35445841       0.00000000
Si      -1.33604065       1.37534842      -1.35364151       0.00000000
Si       1.36550926      -1.35110890      -1.35011131       0.00000000
Si      -1.35366643      -1.34803009       1.37400579       0.00000000
Si      -2.69508278       0.01014867      -2.68499317       0.00000000
Si       2.67116906       0.00128691       2.71994505       0.00000000
Si      -0.00434943      -2.72000648      -2.67589051       0.00000000
Si       2.69358410      -2.71231760       0.02441964       0.00000000
Si      -2.68353317       2.72324819       0.01274956       0.00000000
Si       2.69329088       2.72611523      -0.00898596       0.00000000
