10
Lattice="16.290000149 0.0 0.0 0.0 16.290000149 0.0 0.0 0.0 29.1751946751" Properties=species:S:1:pos:R:3:initial_magmoms:R:1 pbc="T T T"
Si      -0.70411897      -0.10316457      -1.32770476       0.00000000
H       -2.13983813       0.64350388       0.39841646       0.00000000
H        1.18654732       1.60373422      -1.12948849       0.00000000
Si      -1.45324720       0.83088775       1.73636171       0.00000000
H        1.84000439       1.18620523      -1.07306366       0.00000000
Si       0.28830042      -2.70361874       1.46182313       0.00000000
Si       0.91505818      -0.89344135      -2.83620820       0.00000000
Si       2.27708138      -2.10514043       0.28644206       0.00000000
Si       0.42111279       2.34232283       2.04135920       0.00000000
Si      -0.99411355      -1.19762452       2.79623818       0.00000000
