10
Lattice="16.290000149 0.0 0.0 0.0 16.290000149 0.0 0.0 0.0 29.1751946751" Properties=species:S:1:pos:R:3:initial_magmoms:R:1 pbc="T T T"
Si      -0.27460705       0.82285678       2.15181648       0.00000000
Si      -1.77316652      -1.00172098      -1.15536688       0.00000000
Si       1.64615338      -1.66278548       0.10602266       0.00000000
Si       0.91689895       1.73885978      -1.27548116       0.00000000
Si      -0.43390696      -2.30638709      -2.57727835       0.00000000
Si      -2.54417222       1.30660462       2.02598387       0.00000000
Si       2.44156151       0.47149776      -2.49129905       0.00000000
Si       3.46900440      -0.35992755      -0.53580245       0.00000000
Si       1.00370836       2.81593667       2.26732108       0.00000000
Si       0.75911401      -0.72866800       3.62609742       0.00000000
