10
Lattice="16.290000149 0.0 0.0 0.0 16.290000149 0.0 0.0 0.0 29.1751946751" Properties=species:S:1:pos:R:3:initial_magmoms:R:1 pbc="T T T"
H       -1.04317903       1.11669580       0.02465304       0.00000000
Si      -0.82950310      -1.92841836       1.02183202       0.00000000
Si       0.27671823      -0.73670711      -2.20666585       0.00000000
Si       1.86375358       0.89350651       1.12870076       0.00000000
Si       2.54628341      -1.22045496      -2.08083323       0.00000000
Si      -2.39552597      -2.70362689      -0.57017083       0.00000000
Si       0.90984538       1.68366111       3.12475088       0.00000000
H        0.13936095       3.28529393      -1.73662429       0.00000000
Si      -2.89613397       0.53880642       2.40421109       0.00000000
Si       0.94037284      -3.08701204       2.05302927       0.00000000
