10
Lattice="16.290000149 0.0 0.0 0.0 16.290000149 0.0 0.0 0.0 29.1751946751" Properties=species:S:1:pos:R:3:initial_magmoms:R:1 pbc="T T T"
Si      -1.26330580      -0.56578429      -0.93524004       0.00000000
Si       1.19698921       0.51077295       1.05981812       0.00000000
Si      -0.03318273      -2.41803875      -1.59623325       0.00000000
Si      -0.32118993       1.80252110       2.25232503       0.00000000
Si       2.86112350       1.26783442      -0.39605327       0.00000000
Si      -3.03764520      -1.15320169       0.51432951       0.00000000
Si      -2.27804249       0.77919958      -2.55067057       0.00000000
Si       2.34181784      -0.98520292       2.44142901       0.00000000
Si      -1.77937301       3.01299843       0.78761356       0.00000000
H       -0.31918626       0.67842964      -3.61646961       0.00000000
