10
Lattice="16.290000149 0.0 0.0 0.0 16.290000149 0.0 0.0 0.0 29.1751946751" Properties=species:S:1:pos:R:3:initial_magmoms:R:1 pbc="T T T"
Si       1.29383326       1.43718526       1.31212521       0.00000000
Si      -1.35477415       1.36713826      -1.33727422       0.00000000
Si      -1.30735396      -1.34825978       1.42313682       0.00000000
Si       1.42542388      -1.36139767      -1.29902554       0.00000000
Si       2.53377920       0.04728987       2.68496399       0.00000000
Si      -2.65175138      -2.69348636       0.03445590       0.00000000
Si       0.06369390      -2.70366761      -2.67705751       0.00000000
Si      -2.71026506      -0.00052128      -2.67545288       0.00000000
Si       0.01997154       2.70446582      -2.69888056       0.00000000
Si       2.76032424       0.00304623      -2.66821743       0.00000000
