10
Lattice="16.290000149 0.0 0.0 0.0 16.290000149 0.0 0.0 0.0 29.1751946751" Properties=species:S:1:pos:R:3:initial_magmoms:R:1 pbc="T T T"
Si      -1.66413429      -0.75706147       1.45587139       0.00000000
Si      -0.48434732       0.68150845      -2.24033402       0.00000000
Si       1.09739541       1.75832633       1.21126656       0.00000000
Si       1.36155405      -1.99663274       0.03655652       0.00000000
H       -2.86112350      -1.26783442       0.39605327       0.00000000
H        3.06864833      -0.33969537      -0.85661289       0.00000000
Si       2.46966502       0.36727434       2.50591582       0.00000000
H        2.77808359      -0.35707680      -2.26647500       0.00000000
Si       3.47358515      -0.85493179       0.60599797       0.00000000
Si       0.90302638      -2.84029185      -2.09209486       0.00000000
