10
Lattice="16.290000149 0.0 0.0 0.0 16.290000149 0.0 0.0 0.0 29.1751946751" Properties=species:S:1:pos:R:3:initial_magmoms:R:1 pbc="T T T"
Si      -0.72946621       2.19332472       0.39255224       0.00000000
Si       1.90009820       0.54080194       1.28823072       0.00000000
Si      -1.61101585      -1.48746598       0.94469280       0.00000000
Si       0.73182826       0.33610506      -2.26422851       0.00000000
H        1.46390086      -2.18091499      -1.27288457       0.00000000
H        1.72260236       1.92747191       1.90079311       0.00000000
Si       2.54589896       1.65766064      -1.66033115       0.00000000
Si       1.22065858       3.20864785      -0.49950851       0.00000000
H       -0.42443595      -2.61048230      -2.50509892       0.00000000
Si      -0.38996631      -2.90143799       2.39160828       0.00000000
