10
Lattice="16.290000149 0.0 0.0 0.0 16.290000149 0.0 0.0 0.0 29.1751946751" Properties=species:S:1:pos:R:3:initial_magmoms:R:1 pbc="T T T"
Si      -0.64733203       0.41850639      -2.13387374       0.00000000
Si      -1.91480807      -0.78868036       1.11252019       0.00000000
Si       0.85563226       1.93635974       1.04362005       0.00000000
Si       1.70209325      -1.67114225      -0.12550118       0.00000000
H       -1.21774267      -2.61995330      -0.79980879       0.00000000
Si      -0.66310075      -2.15860421       2.52904883       0.00000000
Si       2.16805241       0.67414537       2.51930724       0.00000000
Si       3.41979231      -0.73546093       1.16263151       0.00000000
Si       0.83745262      -3.39824064       1.25489806       0.00000000
Si      -2.33347736       2.02676924      -2.13912527       0.00000000
