10
Lattice="16.290000149 0.0 0.0 0.0 16.290000149 0.0 0.0 0.0 29.1751946751" Properties=species:S:1:pos:R:3:initial_magmoms:R:1 pbc="T T T"
Si       1.32973642      -1.41870752      -1.28656773       0.00000000
Si      -1.34830702      -1.37259215       1.33849958       0.00000000
Si       1.38463372       1.34921926       1.32668363       0.00000000
Si      -1.30034926       1.35003376      -1.41870219       0.00000000
Si       2.65728998      -0.07734492      -2.61871004       0.00000000
Si       0.01327635       2.69617421       2.66290754       0.00000000
Si      -2.68027517       2.70001865      -0.07250036       0.00000000
Si      -2.70897815      -0.01510083       2.67626978       0.00000000
Si       0.03420900      -2.73318510       2.65969827       0.00000000
Si      -0.03256371      -2.69354851      -2.70053771       0.00000000
