10
Lattice="16.290000149 0.0 0.0 0.0 16.290000149 0.0 0.0 0.0 29.1751946751" Properties=species:S:1:pos:R:3:initial_magmoms:R:1 pbc="T T T"
Si       2.20384154      -0.38374353       0.80751104       0.00000000
Si       0.04163724       2.30646854       0.63423956       0.00000000
Si       0.14696838      -0.41661675      -2.36001067       0.00000000
Si      -1.51578451      -1.38168035       1.28884340       0.00000000
H       -2.15862050      -0.22287978      -1.43798700       0.00000000
H       -0.90189586       2.43558308      -1.89288663       0.00000000
Si       0.47039004       2.05967504       2.93119622       0.00000000
Si      -0.73401112       1.65055169      -3.16504182       0.00000000
Si       2.11097225       0.32076639       3.03302406       0.00000000
Si       2.45232920      -0.36285975      -2.80189817       0.00000000
