10
Lattice="16.290000149 0.0 0.0 0.0 16.290000149 0.0 0.0 0.0 29.1751946751" Properties=species:S:1:pos:R:3:initial_magmoms:R:1 pbc="T T T"
Si       0.46649673      -0.44413056       2.21142141       0.00000000
Si       1.82285102       1.30285792      -0.64182511       0.00000000
Si      -1.64615338       1.66278548      -0.10602266       0.00000000
Si      -0.66510442      -1.87043411      -1.30515233       0.00000000
H        1.81941383       0.13983336       2.48391772       0.00000000
Si       0.79540813       2.13428324      -2.59732171       0.00000000
Si      -2.08006034      -0.64360162      -2.68330100       0.00000000
Si      -3.41931990       0.66106450      -1.26138954       0.00000000
Si       3.64770570      -0.15004719      -0.81296680       0.00000000
Si      -0.72925444       3.40164525      -1.38150382       0.00000000
