10
Lattice="16.290000149 0.0 0.0 0.0 16.290000149 0.0 0.0 0.0 29.1751946751" Properties=species:S:1:pos:R:3:initial_magmoms:R:1 pbc="T T T"
Si      -0.09286929       0.70450993       2.22551302       0.00000000
Si       0.72946621      -2.19332472      -0.39255224       0.00000000
Si       1.95012479       1.01532313      -0.89206075       0.00000000
Si      -2.20384154       0.38374353      -0.80751104       0.00000000
H        2.45206856      -0.26585280       1.50824086       0.00000000
Si       2.62956440      -1.65252278       0.89567848       0.00000000
Si      -2.16220430       2.69021207      -0.17327148       0.00000000
Si       1.46129446      -1.85721966      -2.65678075       0.00000000
Si       1.03068460       2.06239547      -2.72662617       0.00000000
Si       0.24848766       0.02088378      -3.60940921       0.00000000
