10
Lattice="16.290000149 0.0 0.0 0.0 16.290000149 0.0 0.0 0.0 29.1751946751" Properties=species:S:1:pos:R:3:initial_magmoms:R:1 pbc="T T T"
Si       1.38623014      -1.31453785      -1.35801779       0.00000000
Si       1.37044513       1.36143676       1.32820074       0.00000000
Si      -1.35817876       1.36923967      -1.33870381       0.00000000
Si      -1.35617509      -1.35536059       1.35848459       0.00000000
Si       0.00275301      -2.67779909      -2.65946487       0.00000000
Si      -0.00830790       2.70840800       2.65033303       0.00000000
Si       0.02466306       2.68939757      -2.69672159       0.00000000
Si       2.71477739      -2.68130144       0.01875965       0.00000000
Si      -2.73458604       0.01063737       2.67090155       0.00000000
Si      -2.73645939      -2.69008175       0.01482100       0.00000000
