10
Lattice="16.290000149 0.0 0.0 0.0 16.290000149 0.0 0.0 0.0 29.1751946751" Properties=species:S:1:pos:R:3:initial_magmoms:R:1 pbc="T T T"
Si      -1.38704464      -1.29598354      -1.35918859       0.00000000
Si       1.20554146      -1.39575979       1.44471188       0.00000000
Si      -1.41972238       1.38272779       1.28023964       0.00000000
Si       1.85231963       0.82170019      -1.21987382       0.00000000
Si       2.52180605      -2.71427729       0.04190141       0.00000000
Si       2.63484236       0.00115659       2.69354733       0.00000000
Si       2.68148063       2.65864205      -0.01490561       0.00000000
Si       3.49290183      -0.91720846      -1.11804598       0.00000000
Si      -0.09635535       2.71782362       2.67875551       0.00000000
Si      -2.72102950      -2.70032491      -0.00859209       0.00000000
