10
Lattice="16.290000149 0.0 0.0 0.0 16.290000149 0.0 0.0 0.0 29.1751946751" Properties=species:S:1:pos:R:3:initial_magmoms:R:1 pbc="T T T"
Si      -1.32690196       1.34762284       1.38348773       0.00000000
Si       1.34543998       1.39538814      -1.31675823       0.00000000
Si      -1.33784884      -1.32431185      -1.40086156       0.00000000
Si       1.38297214      -1.36243045       1.33739092       0.00000000
Si       2.66879072      -0.09730017      -2.51748670       0.00000000
Si       2.70774011       2.67022913       0.09721175       0.00000000
Si       0.01897785      -2.72660393       2.66497898       0.00000000
Si       0.04983111      -2.67550220      -2.71895309       0.00000000
Si      -2.71327871      -0.01666467       2.68452636       0.00000000
Si      -2.69456150       2.70695494       0.06456471       0.00000000
