10
Lattice="16.290000149 0.0 0.0 0.0 16.290000149 0.0 0.0 0.0 29.1751946751" Properties=species:S:1:pos:R:3:initial_magmoms:R:1 pbc="T T T"
Si      -1.45697761      -1.29872026       1.30264327       0.00000000
Si       1.37024965      -1.38712609      -1.31063727       0.00000000
Si      -1.36301689       1.32675535      -1.37995753       0.00000000
Si       1.38303730       1.35037585       1.34001669       0.00000000
Si      -0.05559777       2.72091872       2.57223104       0.00000000
Si      -0.21703167      -2.68861565       2.67548205       0.00000000
Si       2.72533331       2.68348430      -0.03180096       0.00000000
Si       2.72378576      -0.03978018      -2.68525574       0.00000000
Si       0.00951336      -2.73285929      -2.67769937       0.00000000
Si      -0.00910611       2.67797828      -2.74220572       0.00000000
