10
Lattice="16.290000149 0.0 0.0 0.0 16.290000149 0.0 0.0 0.0 29.1751946751" Properties=species:S:1:pos:R:3:initial_magmoms:R:1 pbc="T T T"
Si      -1.38906460      -1.35931906       1.31349644       0.00000000
Si      -1.36953289       1.34185618      -1.35352481       0.00000000
Si       1.35224920      -1.36985869      -1.35107409       0.00000000
Si       1.37661904       1.36603054       1.33692412       0.00000000
Si       2.77241142      -0.08395866       2.53036463       0.00000000
Si       0.00742824       2.69811272      -2.68499317       0.00000000
Si      -0.06906960      -2.80008813       2.58929853       0.00000000
Si      -2.68964192       2.71063973       0.02996292       0.00000000
Si      -2.67981905       0.00871515       2.72601349       0.00000000
Si       2.72772794      -0.02627577      -2.69182016       0.00000000
