10
Lattice="16.290000149 0.0 0.0 0.0 16.290000149 0.0 0.0 0.0 29.1751946751" Properties=species:S:1:pos:R:3:initial_magmoms:R:1 pbc="T T T"
H        1.95885623      -0.10076994      -1.06579904       0.00000000
Si       1.01473669      -1.34498386       1.61543053       0.00000000
Si       0.77030524       1.86940784      -1.28242486       0.00000000
Si      -0.76261636      -2.04413438      -1.01118307       0.00000000
Si      -1.06380217       1.11233008       1.87301832       0.00000000
H       -1.19969335       1.24721128      -2.37068879       0.00000000
H       -3.03969774       0.06100605      -1.29762513       0.00000000
H       -1.85315042       1.66474028      -2.42711362       0.00000000
H        2.27804249      -0.77919958       2.55067057       0.00000000
Si      -1.00859536       3.41606190      -0.65734631       0.00000000
