10
Lattice="16.290000149 0.0 0.0 0.0 16.290000149 0.0 0.0 0.0 29.1751946751" Properties=species:S:1:pos:R:3:initial_magmoms:R:1 pbc="T T T"
Si       1.31999500      -1.44076906       1.27580209       0.00000000
Si      -1.34846992      -1.36163224      -1.34853585       0.00000000
Si       1.38906460       1.35931906      -1.31349644       0.00000000
Si      -1.29075445       1.36803421       1.41251705       0.00000000
Si       2.74589130      -0.05072706       2.45535521       0.00000000
Si       0.01953171       2.70117524      -2.66702125       0.00000000
Si      -2.66413178       2.71974584       0.06643192       0.00000000
Si      -2.71511948      -0.00438201      -2.67723256       0.00000000
Si      -0.06434550      -2.77597893       2.61660651       0.00000000
Si       2.74131380      -0.01053963      -2.66457053       0.00000000
