10
Lattice="16.290000149 0.0 0.0 0.0 16.290000149 0.0 0.0 0.0 29.1751946751" Properties=species:S:1:pos:R:3:initial_magmoms:R:1 pbc="T T T"
Si      -1.37038160      -1.37204155      -1.33068063       0.00000000
Si       1.34705106       1.35378046      -1.37677744       0.00000000
Si       1.40556474      -1.33918462       1.33313135       0.00000000
Si      -1.39618496       1.33771852       1.34815657       0.00000000
Si      -0.01673635       2.69891093       2.68242575       0.00000000
Si       0.06941495      -2.68951160       2.70468642       0.00000000
Si      -2.70220314      -0.00535127      -2.70287756       0.00000000
Si      -2.70019947       2.71806797      -0.02719128       0.00000000
Si      -0.00068092      -2.71156826      -2.71177599       0.00000000
Si       2.70254198       2.72144000      -0.03859878       0.00000000
