10
Lattice="16.290000149 0.0 0.0 0.0 16.290000149 0.0 0.0 0.0 29.1751946751" Properties=species:S:1:pos:R:3:initial_magmoms:R:1 pbc="T T T"
Si       1.36985869       1.36889758       1.32577920       0.00000000
Si       1.38108902      -1.34655096      -1.34194225       0.00000000
Si      -1.32568021       1.38334681      -1.36032263       0.00000000
Si      -1.35132067      -1.35144285       1.37421002       0.00000000
Si      -2.68390784      -2.70669755      -0.00802318       0.00000000
Si      -2.69597873       0.03414384      -2.69683830       0.00000000
Si       0.00434943       2.72000648       2.67589051       0.00000000
Si       2.69793353       0.00768888       2.70031014       0.00000000
Si       2.70433550       0.03789054      -2.70637858       0.00000000
Si      -2.69073335       2.73015516      -0.00910266       0.00000000
