10
Lattice="16.28999089631971 0.0 0.0 0.0 16.28999089631971 0.0 0.0 0.0 34.26581377546328" Properties=species:S:1:pos:R:3:initial_magmoms:R:1 pbc="T T T"
Si      -1.35648266       1.35706022      -1.35809202       0.00000000
Si       1.35974845      -1.35774389      -1.35682419       0.00000000
Si      -1.34752316      -1.37901863       1.35915426       0.00000000
Si       1.38240133       1.35436585       1.35764657       0.00000000
Si      -2.60810852      -0.00334442       2.74664637       0.00000000
Si       2.71165881      -2.71427735       0.00376924       0.00000000
Si       0.00149965       2.71357413      -2.71436796       0.00000000
Si      -2.71381433      -0.00200216      -2.71433369       0.00000000
Si      -2.71187582      -2.71833356      -0.00130210       0.00000000
Si      -2.71673024       2.71401396      -0.00137063       0.00000000
