10
Lattice="16.28999089631971 0.0 0.0 0.0 16.28999089631971 0.0 0.0 0.0 34.26581377546328" Properties=species:S:1:pos:R:3:initial_magmoms:R:1 pbc="T T T"
Si       1.30258587       1.03627206      -1.62002005       0.00000000
Si      -1.98137129      -0.50935572      -1.12947038       0.00000000
Si      -1.01824880       1.23219189       1.71233220       0.00000000
Si       0.80152176      -2.20667598       0.28344697       0.00000000
Si      -2.89403483      -0.15291423       2.09467037       0.00000000
Si       0.07503663      -2.61309519       2.48927570       0.00000000
Si       1.20173448      -0.70307640       3.44433299       0.00000000
Si       2.11830762      -0.70506378      -2.97372604       0.00000000
Si      -0.11029470      -3.41373240      -1.55498350       0.00000000
Si      -1.66014878       0.08682570      -3.38467618       0.00000000
