10
Lattice="16.28999089631971 0.0 0.0 0.0 16.28999089631971 0.0 0.0 0.0 34.26581377546328" Properties=species:S:1:pos:R:3:initial_magmoms:R:1 pbc="T T T"
Si       1.34050410       1.35324288       1.34613325       0.00000000
Si      -1.33614815      -1.35790508       1.36192980       0.00000000
Si       1.35459495      -1.35372506      -1.35343187       0.00000000
Si      -1.35894438       1.35786924      -1.35350040       0.00000000
Si      -2.60288771       0.07718202       2.67307763       0.00000000
Si       2.54286900       0.05553261       2.83508648       0.00000000
Si      -0.01018125       2.64704355       2.73955334       0.00000000
Si       2.71241532       0.00144981      -2.71049592       0.00000000
Si      -0.00228060      -2.71369033      -2.71046165       0.00000000
Si      -0.00237834       2.71585251      -2.71056445       0.00000000
