10
Lattice="16.28999089631971 0.0 0.0 0.0 16.28999089631971 0.0 0.0 0.0 34.26581377546328" Properties=species:S:1:pos:R:3:initial_magmoms:R:1 pbc="T T T"
Si       1.21955085      -1.43715946       1.41465121       0.00000000
Si      -1.48929696       1.29298780       1.40951476       0.00000000
Si      -0.87078195      -0.80343094      -2.15080264       0.00000000
Si       1.91694204       0.79449751      -1.62142978       0.00000000
Si       2.68586262       2.49820345      -0.13546997       0.00000000
Si       1.14929208      -1.38388730      -3.24854286       0.00000000
Si      -2.70954828       2.65763368      -0.10042630       0.00000000
Si       2.57768073      -0.06445627       2.79072251       0.00000000
Si       2.66701509      -2.73778441      -0.01959663       0.00000000
Si      -0.13913289       2.65088962       2.78811831       0.00000000
