10
Lattice="16.28999089631971 0.0 0.0 0.0 16.28999089631971 0.0 0.0 0.0 34.26581377546328" Properties=species:S:1:pos:R:3:initial_magmoms:R:1 pbc="T T T"
Si      -1.35563751       1.35435714      -1.35812629       0.00000000
Si       1.35804843       1.35699612       1.35733817       0.00000000
Si      -1.35786924      -1.35761576       1.35768083       0.00000000
Si       1.35773892      -1.35743657      -1.35973678       0.00000000
Si      -2.71555929       2.71404434      -0.00037692       0.00000000
Si      -2.71386513      -2.71574564       0.00027413       0.00000000
Si      -0.00009774       2.71471223       2.71495047       0.00000000
Si      -2.71479366      -0.00042791       2.71498474       0.00000000
Si       2.71529865       2.71480997      -0.00109651       0.00000000
Si       2.71541268      -0.00060341       2.71522460       0.00000000
