10
Lattice="16.28999089631971 0.0 0.0 0.0 16.28999089631971 0.0 0.0 0.0 34.26581377546328" Properties=species:S:1:pos:R:3:initial_magmoms:R:1 pbc="T T T"
Si      -1.22385141      -0.24169473      -2.00838900       0.00000000
Si       1.84055823      -1.52117323      -0.13771438       0.00000000
Si       0.77602302       2.26865943       0.04780084       0.00000000
Si      -0.76080816      -0.13027113       2.27552543       0.00000000
Si       2.91400407       1.75202208       0.86737103       0.00000000
Si       3.56259042      -0.01961316      -0.61281016       0.00000000
Si      -2.16976284      -2.42715203      -1.87204525       0.00000000
Si      -0.12906567      -2.29306904       2.98880301       0.00000000
Si       2.03401827      -2.50970975       2.01534496       0.00000000
Si       0.34270902      -0.47126644      -3.78257103       0.00000000
