10
Lattice="16.28999089631971 0.0 0.0 0.0 16.28999089631971 0.0 0.0 0.0 34.26581377546328" Properties=species:S:1:pos:R:3:initial_magmoms:R:1 pbc="T T T"
Si      -1.35671265      -1.35622395      -1.35658433       0.00000000
Si       1.35446463      -1.35324288       1.36230672       0.00000000
Si      -1.35345465       1.35884664       1.35846895       0.00000000
Si       1.35795069       1.35891180      -1.35600181       0.00000000
Si      -2.71453302      -2.71139882       0.00047972       0.00000000
Si      -2.71384884       0.00109143      -2.71385397       0.00000000
Si       0.00143352      -2.71394006      -2.71419663       0.00000000
Si      -2.72862387      -0.00443088       2.70004484       0.00000000
Si       0.00065160       2.71639008      -2.71340851       0.00000000
Si      -2.71394658       2.71635750       0.00047972       0.00000000
