10
Lattice="16.28999089631971 0.0 0.0 0.0 16.28999089631971 0.0 0.0 0.0 34.26581377546328" Properties=species:S:1:pos:R:3:initial_magmoms:R:1 pbc="T T T"
Si      -1.39427739      -1.25476983       1.49835377       0.00000000
Si       1.13655330       1.43003394       1.59893084       0.00000000
Si      -1.97832276       0.39288222      -1.49858194       0.00000000
Si       1.53183015      -0.53188479      -1.93019437       0.00000000
Si       1.69510482       1.73082879      -2.64994819       0.00000000
Si      -0.02269197      -1.34177472      -3.44608055       0.00000000
Si      -0.00117288       3.36215826      -1.81876188       0.00000000
Si      -2.26807299       2.66260050      -1.72566161       0.00000000
Si       2.29661307       3.12015402       0.45313621       0.00000000
Si       2.54053953       0.08355141       2.99489346       0.00000000
