10
Lattice="16.28999089631971 0.0 0.0 0.0 16.28999089631971 0.0 0.0 0.0 34.26581377546328" Properties=species:S:1:pos:R:3:initial_magmoms:R:1 pbc="T T T"
Si       1.69877007       1.15701354       1.03784355       0.00000000
Si      -0.16327467      -2.26271358       0.71975382       0.00000000
Si       0.75567681      -0.08079840      -2.26983730       0.00000000
Si      -1.69627770       1.63132947       0.83118631       0.00000000
Si       0.60150825       1.38932523       3.10308440       0.00000000
Si      -1.69510482      -1.73082879       2.64994819       0.00000000
Si      -1.71779679      -3.07260351      -0.79613236       0.00000000
Si       3.60095337      -0.02964780       0.25737067       0.00000000
Si       3.11161806       0.56886309      -2.00623025       0.00000000
Si      -1.64639772       3.48053769      -0.69186143       0.00000000
