10
Lattice="16.28999089631971 0.0 0.0 0.0 16.28999089631971 0.0 0.0 0.0 34.26581377546328" Properties=species:S:1:pos:R:3:initial_magmoms:R:1 pbc="T T T"
Si       1.35153243       1.36210464      -1.35690985       0.00000000
Si       1.35514881      -1.35681039       1.35905147       0.00000000
Si      -1.36080144       1.35651717       1.35870881       0.00000000
Si      -1.36221867      -1.37217186      -1.35721482       0.00000000
Si      -2.59296075       0.01951542      -2.77977800       0.00000000
Si       2.74199796       0.01497051      -2.67756302       0.00000000
Si       2.71055826       2.71599912      -0.00102797       0.00000000
Si       2.71298547       0.00009774       2.71673230       0.00000000
Si      -0.00151497       2.71445157       2.71590992       0.00000000
Si      -2.71581993       2.71516833       0.00284406       0.00000000
