10
Lattice="16.28999089631971 0.0 0.0 0.0 16.28999089631971 0.0 0.0 0.0 34.26581377546328" Properties=species:S:1:pos:R:3:initial_magmoms:R:1 pbc="T T T"
Si       1.35651717      -1.35698958      -1.35696125       0.00000000
Si       1.35817875       1.35659862       1.35696125       0.00000000
Si      -1.35808101      -1.35702216       1.35692698       0.00000000
Si      -1.35804843       1.35742941      -1.35696125       0.00000000
Si       2.71358820       0.00087966      -2.71447075       0.00000000
Si       2.71381626      -2.71446786       0.00044546       0.00000000
Si      -0.00236205       2.71420722      -2.71481341       0.00000000
Si      -2.71549413       0.00000000      -2.71354558       0.00000000
Si       2.71443528       2.71492398      -0.00010280       0.00000000
Si       0.00241092      -2.71453302       2.71491621       0.00000000
