10
Lattice="16.28999089631971 0.0 0.0 0.0 16.28999089631971 0.0 0.0 0.0 34.26581377546328" Properties=species:S:1:pos:R:3:initial_magmoms:R:1 pbc="T T T"
Si      -1.19451312      -1.19384523       1.62629070       0.00000000
Si       0.76880655       0.65347335       2.23920365       0.00000000
Si       1.73863170      -1.33208217      -1.36710394       0.00000000
Si      -1.38543192       1.97856711      -1.21170838       0.00000000
Si      -1.88797842       1.89179028       1.17261107       0.00000000
Si       0.03557736      -2.16881802      -2.83097458       0.00000000
Si      -2.78018172      -2.39451597       0.09748629       0.00000000
Si       2.99411829       1.29223683       1.91426076       0.00000000
Si      -2.68190415       0.52380495      -2.82299065       0.00000000
Si       2.81194722       0.46087668      -2.71433369       0.00000000
