10
Lattice="16.28999089631971 0.0 0.0 0.0 16.28999089631971 0.0 0.0 0.0 34.26581377546328" Properties=species:S:1:pos:R:3:initial_magmoms:R:1 pbc="T T T"
Si       2.22531174       0.63876348      -0.32494289       0.00000000
Si      -0.31614003      -0.59083830       2.31003113       0.00000000
Si      -0.76880655      -0.65347335      -2.23920365       0.00000000
Si      -1.96331967      -1.84731858      -0.61291295       0.00000000
Si      -2.65678497       1.23831693      -1.06659258       0.00000000
Si      -2.48650560      -1.32985044       1.71455948       0.00000000
Si       0.36968526      -3.43305234       0.58854995       0.00000000
Si       2.44985310       2.63164950       0.89797042       0.00000000
Si       3.61281249      -1.15641081       0.53290223       0.00000000
Si      -1.80434556       3.24674361       0.97314966       0.00000000
