10
Lattice="16.28999089631971 0.0 0.0 0.0 16.28999089631971 0.0 0.0 0.0 34.26581377546328" Properties=species:S:1:pos:R:3:initial_magmoms:R:1 pbc="T T T"
Si       1.22385141       0.24169473       2.00838900       0.00000000
Si       1.56656043      -0.22957171      -1.77418203       0.00000000
Si      -1.52008506       1.82518047      -0.14114097       0.00000000
Si      -0.94591143      -2.18545730       0.13634375       0.00000000
Si      -1.95848154       0.97961544      -2.46446724       0.00000000
Si       0.09345573      -0.11813508      -3.80309626       0.00000000
Si       3.06440964      -1.27947850       1.87067462       0.00000000
Si       1.99987443       2.51035416       2.05618984       0.00000000
Si      -2.12116163      -2.27440070       2.22518892       0.00000000
Si       2.83538853       1.87302420      -1.78675759       0.00000000
