10
Lattice="16.28999089631971 0.0 0.0 0.0 16.28999089631971 0.0 0.0 0.0 34.26581377546328" Properties=species:S:1:pos:R:3:initial_magmoms:R:1 pbc="T T T"
Si      -2.11411620      -0.38102310      -0.97033986       0.00000000
Si       1.59966171      -1.25211456      -1.24450079       0.00000000
Si       0.46193553       2.34580887      -0.15179764       0.00000000
Si      -0.11694591      -0.73853973       2.29800382       0.00000000
Si      -1.80462249       2.94603021       0.01956579       0.00000000
Si       3.15780021      -1.38243456       0.56737366       0.00000000
Si      -1.55004237      -2.33088723      -2.22560011       0.00000000
Si       2.27196630      -0.62550342       2.71035885       0.00000000
Si      -2.71643895       1.73897379      -1.81886468       0.00000000
Si       0.54336924      -3.27969828      -1.78055548       0.00000000
