10
Lattice="16.28999089631971 0.0 0.0 0.0 16.28999089631971 0.0 0.0 0.0 34.26581377546328" Properties=species:S:1:pos:R:3:initial_magmoms:R:1 pbc="T T T"
Si      -2.26690011      -0.69955776       0.09310027       0.00000000
Si       0.04987998       1.84920822      -1.52304774       0.00000000
Si       0.47855133       1.37560905       2.02206107       0.00000000
Si       1.69627770      -1.63132947      -0.83118631       0.00000000
Si       2.29778595      -0.24200424       2.27189809       0.00000000
Si      -2.16728676       2.32318206      -0.99384622       0.00000000
Si       3.39504777      -0.47431593       0.20665724       0.00000000
Si      -1.97714988      -2.96927604       0.32017994       0.00000000
Si      -1.41584535       0.82640799       3.42735568       0.00000000
Si       0.00117288      -3.36215826       1.81876188       0.00000000
