10
Lattice="16.28999089631971 0.0 0.0 0.0 16.28999089631971 0.0 0.0 0.0 34.26581377546328" Properties=species:S:1:pos:R:3:initial_magmoms:R:1 pbc="T T T"
Si      -1.51490484      -1.26635202       1.38841728       0.00000000
Si       1.26964260      -1.37870415      -1.53809044       0.00000000
Si      -1.43185842       1.33467228      -1.53908415       0.00000000
Si       1.66848696       1.19964447       1.55200237       0.00000000
Si       2.68247430      -2.78404245      -0.11420802       0.00000000
Si      -2.74709673       2.73211598      -0.11355697       0.00000000
Si      -2.28685536       1.75371624       2.62651036       0.00000000
Si       2.77566939       2.76051384       0.03717843       0.00000000
Si      -2.81137707      -2.72111418      -0.22286498       0.00000000
Si       2.62415610      -0.01726740      -2.92489723       0.00000000
