10
Lattice="16.28999089631971 0.0 0.0 0.0 16.28999089631971 0.0 0.0 0.0 34.26581377546328" Properties=species:S:1:pos:R:3:initial_magmoms:R:1 pbc="T T T"
Si       1.38666670      -1.30205060       1.38764288       0.00000000
Si       1.18375846       1.62570942      -1.24867916       0.00000000
Si      -1.34546900       1.41465618       1.37453962       0.00000000
Si      -0.77544635      -1.80392921      -1.41364863       0.00000000
Si       0.36795526      -1.05221997      -3.51966098       0.00000000
Si       2.45405266      -2.88245753      -0.05857059       0.00000000
Si      -2.65954842      -2.71434473      -0.13994851       0.00000000
Si       0.02205829      -2.66078321       2.75696381       0.00000000
Si      -2.69613576       0.05485006       2.75716941       0.00000000
Si       2.73740092       0.05083132       2.75877990       0.00000000
