10
Lattice="16.28999089631971 0.0 0.0 0.0 16.28999089631971 0.0 0.0 0.0 34.26581377546328" Properties=species:S:1:pos:R:3:initial_magmoms:R:1 pbc="T T T"
Si      -2.18701395       0.72262440       0.32997997       0.00000000
Si       1.03752639       1.72180413       1.20101744       0.00000000
Si       0.63174249      -2.16279791       0.71327758       0.00000000
Si       0.76080816       0.13027113      -2.27552543       0.00000000
Si      -1.13687910      -3.29042429      -0.38449691       0.00000000
Si       0.71004852       3.53089008      -0.28115116       0.00000000
Si       1.53683118       2.39893056      -2.22772460       0.00000000
Si       2.79482643      -2.37943862      -0.26018047       0.00000000
Si       3.33194031       1.40859630       0.91064878       0.00000000
Si       2.60136639      -1.39090210      -2.41323982       0.00000000
