10
Lattice="16.28999089631971 0.0 0.0 0.0 16.28999089631971 0.0 0.0 0.0 34.26581377546328" Properties=species:S:1:pos:R:3:initial_magmoms:R:1 pbc="T T T"
Si       2.26955538      -0.12968469       0.42643829       0.00000000
Si       0.10446777       0.46856556      -2.26572540       0.00000000
Si      -0.35442153       1.75844034       1.57578286       0.00000000
Si      -1.67000193      -1.74777039       0.21285935       0.00000000
Si       0.65215386       0.70763760       3.44635468       0.00000000
Si       2.27102148      -0.83367333       2.71704069       0.00000000
Si       1.51904250       3.12352605       1.30014850       0.00000000
Si      -0.60030279      -3.30273723       1.70636995       0.00000000
Si      -2.67449220       1.88864631       1.86245082       0.00000000
Si       3.19420836       2.01526848       0.22173420       0.00000000
