10
Lattice="16.28999089631971 0.0 0.0 0.0 16.28999089631971 0.0 0.0 0.0 34.26581377546328" Properties=species:S:1:pos:R:3:initial_magmoms:R:1 pbc="T T T"
Si      -1.26879552       1.44689409      -1.38200957       0.00000000
Si       1.47404952      -1.26876783      -1.38937673       0.00000000
Si       1.53862308       1.42120476       1.19789925       0.00000000
Si      -0.48941676      -1.83525421       1.50543510       0.00000000
Si      -2.45428398      -2.57011891       0.20480688       0.00000000
Si      -0.23584662      -0.79513119       3.67648401       0.00000000
Si      -2.60991864       0.08491977      -2.75562402       0.00000000
Si       0.11243358      -2.63618531      -2.75699465       0.00000000
Si       1.43415531       0.95263920       3.46362466       0.00000000
Si      -2.65114863       2.88564318       0.10389401       0.00000000
