10
Lattice="16.28999089631971 0.0 0.0 0.0 16.28999089631971 0.0 0.0 0.0 34.26581377546328" Properties=species:S:1:pos:R:3:initial_magmoms:R:1 pbc="T T T"
Si      -2.14725006       0.44328348      -1.06073312       0.00000000
Si      -0.19619676      -1.20765915       2.12160331       0.00000000
Si       0.93374280       2.22117408       0.59619123       0.00000000
Si       1.93823307      -1.41524262      -1.05340024       0.00000000
Si       0.97658550       1.81255572       2.90875803       0.00000000
Si       2.00228535      -2.05785543       2.36609003       0.00000000
Si      -0.84478311       0.56397609       3.60178450       0.00000000
Si      -3.07859823       2.13434838       0.64447179       0.00000000
Si       3.60823500       0.33252777      -1.26625959       0.00000000
Si       3.25381347       2.09096811       0.30952327       0.00000000
