10
Lattice="16.28999089631971 0.0 0.0 0.0 16.28999089631971 0.0 0.0 0.0 34.26581377546328" Properties=species:S:1:pos:R:3:initial_magmoms:R:1 pbc="T T T"
Si      -1.82136861      -1.24857963       0.69302647       0.00000000
Si       1.00559799       1.86126282       0.96386361       0.00000000
Si      -0.04284270       0.40861836      -2.31256680       0.00000000
Si       1.53210708      -1.75257594       0.39666128       0.00000000
Si      -1.17278226      -3.02021487      -0.78715471       0.00000000
Si       3.28380336      -0.77239035      -0.72866294       0.00000000
Si       2.27722797       0.27841239      -2.59923476       0.00000000
Si      -0.97658550      -1.81255572      -2.90875803       0.00000000
Si       2.07524826       1.16017380       3.00569607       0.00000000
Si      -0.56296611       3.58423983       1.32882900       0.00000000
