10
Lattice="16.28999089631971 0.0 0.0 0.0 16.28999089631971 0.0 0.0 0.0 34.26581377546328" Properties=species:S:1:pos:R:3:initial_magmoms:R:1 pbc="T T T"
Si       2.24409411      -0.62636679      -0.23568040       0.00000000
Si       0.06092460      -0.24943248       2.36979074       0.00000000
Si      -0.83733858      -1.78238664      -1.35428851       0.00000000
Si      -0.84479940       2.23717086      -0.19815931       0.00000000
Si       2.25909720      -1.20288618       2.15741111       0.00000000
Si      -3.13175250      -1.46917881      -1.06391985       0.00000000
Si      -1.75014873      -1.71738954       2.77395624       0.00000000
Si       3.40215021       1.10006370      -1.36042210       0.00000000
Si       0.99127908       3.64283496      -0.63984590       0.00000000
Si      -0.16257420       1.85743467       3.40499582       0.00000000
