10
Lattice="16.28999089631971 0.0 0.0 0.0 16.28999089631971 0.0 0.0 0.0 34.26581377546328" Properties=species:S:1:pos:R:3:initial_magmoms:R:1 pbc="T T T"
Si      -1.35514881       1.35681039      -1.35905147       0.00000000
Si       1.35783666       1.35690813       1.35768083       0.00000000
Si      -1.35707103      -1.35786924       1.35750950       0.00000000
Si       1.36006839      -1.36081773      -1.36340323       0.00000000
Si      -2.71358820      -0.00087966       2.71447075       0.00000000
Si       0.00084708       2.71404432       2.71436796       0.00000000
Si      -2.71595025       2.71332756      -0.00034266       0.00000000
Si       0.00022806      -2.71534752       2.71491621       0.00000000
Si      -2.71497285      -2.71552671      -0.00054825       0.00000000
Si       2.71572219      -0.00035838       2.71505327       0.00000000
