10
Lattice="16.28999089631971 0.0 0.0 0.0 16.28999089631971 0.0 0.0 0.0 34.26581377546328" Properties=species:S:1:pos:R:3:initial_magmoms:R:1 pbc="T T T"
Si      -0.97764435      -1.82221569       1.07519331       0.00000000
Si       2.15037774      -0.56099502       0.97993429       0.00000000
Si      -0.83771325       2.27791215       0.17677743       0.00000000
Si      -0.19499130      -0.62762112      -2.35241796       0.00000000
Si       2.43976959      -2.48003847      -0.38579901       0.00000000
Si       1.16092314       3.21357717       0.93388101       0.00000000
Si       0.59091975      -3.54519270       0.71022792       0.00000000
Si      -1.58249205       1.16755317      -3.21026309       0.00000000
Si      -3.14871039      -2.11558230       0.07384287       0.00000000
Si      -0.75030111      -1.70351046       3.47263657       0.00000000
