10
Lattice="16.28999089631971 0.0 0.0 0.0 16.28999089631971 0.0 0.0 0.0 34.26581377546328" Properties=species:S:1:pos:R:3:initial_magmoms:R:1 pbc="T T T"
Si      -1.36132598      -1.35537687       1.38725567       0.00000000
Si       1.34876313       1.36360332       1.39242981       0.00000000
Si      -1.48509577       1.33450938      -1.41501100       0.00000000
Si       1.49802840      -1.34801379      -1.49779382       0.00000000
Si      -0.20022039      -2.49696378      -2.61492645       0.00000000
Si       2.70602964       2.70363501       0.03500940       0.00000000
Si       2.71827972      -2.71265967       0.01214724       0.00000000
Si      -2.72944785      -2.70801702       0.00829233       0.00000000
Si      -2.72493323       2.71779102       0.03731549       0.00000000
Si       2.70842427       0.00346977       2.75072743       0.00000000
