10
Lattice="16.28999089631971 0.0 0.0 0.0 16.28999089631971 0.0 0.0 0.0 34.26581377546328" Properties=species:S:1:pos:R:3:initial_magmoms:R:1 pbc="T T T"
Si      -0.81800235       0.94081496       1.95174758       0.00000000
Si      -0.04794147      -2.35678833      -0.04245537       0.00000000
Si      -0.59784300       1.44275873      -1.77264007       0.00000000
Si       2.32111323      -0.04026888       0.55116592       0.00000000
Si       0.04465089       3.06192446       1.48206581       0.00000000
Si       0.68290938      -2.57109957       2.25380089       0.00000000
Si       3.04520373      -0.97303428      -1.46842800       0.00000000
Si      -0.08863389      -0.68439177       3.52533742       0.00000000
Si      -0.09143577       3.56059394      -0.83331079       0.00000000
Si       1.69813476      -2.89659006      -1.59452627       0.00000000
