10
Lattice="16.28999089631971 0.0 0.0 0.0 16.28999089631971 0.0 0.0 0.0 34.26581377546328" Properties=species:S:1:pos:R:3:initial_magmoms:R:1 pbc="T T T"
Si       1.03301406       1.49370992      -1.43959129       0.00000000
Si      -1.45969803       1.23564374       1.41305442       0.00000000
Si       1.25838621      -1.47850551       1.38633735       0.00000000
Si      -1.64121750      -0.88914078      -1.55767135       0.00000000
Si      -0.77830362       3.21774578      -1.37767293       0.00000000
Si      -2.71375110       2.44608848      -0.14994043       0.00000000
Si       2.57285889       2.67965450      -0.07138944       0.00000000
Si       2.60268588      -0.11429064       2.77381918       0.00000000
Si      -0.11249874       2.60058284       2.77837653       0.00000000
Si      -0.27241767      -1.04312201      -3.66423196       0.00000000
