10
Lattice="16.28999089631971 0.0 0.0 0.0 16.28999089631971 0.0 0.0 0.0 34.26581377546328" Properties=species:S:1:pos:R:3:initial_magmoms:R:1 pbc="T T T"
Si      -0.33674688       2.20910808      -0.72972518       0.00000000
Si       1.58596182      -0.56313227      -1.66734116       0.00000000
Si       1.36177884       0.51703320       1.87447812       0.00000000
Si      -1.74865005      -1.55338412       0.48595804       0.00000000
Si      -0.43041438      -3.31576664       1.31323805       0.00000000
Si      -0.79627149       1.82803611      -3.02570731       0.00000000
Si       3.22269047       1.09739703      -1.38834875       0.00000000
Si       1.86453711       2.99190774      -1.17141176       0.00000000
Si       2.60292276      -2.56344557      -1.03582186       0.00000000
Si       0.62470521       0.07404782      -3.75056674       0.00000000
