10
Lattice="16.28999089631971 0.0 0.0 0.0 16.28999089631971 0.0 0.0 0.0 34.26581377546328" Properties=species:S:1:pos:R:3:initial_magmoms:R:1 pbc="T T T"
Si      -1.35643572      -1.35783666      -1.35672139       0.00000000
Si       1.35757602      -1.35731538       1.35689272       0.00000000
Si       1.35855342       1.35666378      -1.35696125       0.00000000
Si      -1.35773892       1.35798327       1.35788643       0.00000000
Si      -0.00216657      -2.71360449      -2.71296306       0.00000000
Si       2.71458189       0.00140094      -2.71327145       0.00000000
Si       2.71461447      -2.71435383       0.00017133       0.00000000
Si       2.71520091       2.71459818      -0.00006853       0.00000000
Si       0.00107514       2.71593396       2.71395677       0.00000000
Si       2.71461447       0.00043983       2.71529313       0.00000000
