10
Lattice="16.28999089631971 0.0 0.0 0.0 16.28999089631971 0.0 0.0 0.0 34.26581377546328" Properties=species:S:1:pos:R:3:initial_magmoms:R:1 pbc="T T T"
Si      -2.16727047      -0.36619920      -0.67154179       0.00000000
Si       0.23600952      -1.41599196       1.84110320       0.00000000
Si       0.51221024       2.16917640       0.81631494       0.00000000
Si       1.43167501      -1.08110214      -1.57657097       0.00000000
Si      -2.42479908      -2.57986359      -0.01319235       0.00000000
Si       3.04874585       0.60286032      -1.69735803       0.00000000
Si      -2.07546003       0.35642520      -2.85259633       0.00000000
Si       2.48467202       2.55272445      -0.44209778       0.00000000
Si       1.45372516      -0.19034865       3.38714332       0.00000000
Si      -1.96527447      -2.19879162       2.28278979       0.00000000
