10
Lattice="16.28999089631971 0.0 0.0 0.0 16.28999089631971 0.0 0.0 0.0 34.26581377546328" Properties=species:S:1:pos:R:3:initial_magmoms:R:1 pbc="T T T"
Si       1.34578206       1.36246302       1.38739274       0.00000000
Si      -1.37182977      -1.35580041       1.38112209       0.00000000
Si      -1.28969559       1.44125775      -1.40001970       0.00000000
Si       1.42017849      -1.41783273      -1.46154742       0.00000000
Si       2.69078088       2.70154989       0.00778177       0.00000000
Si       2.69640225      -2.71236645       0.03077072       0.00000000
Si      -2.71350675      -2.72945466       0.00980345       0.00000000
Si      -2.71419093       2.72899854       0.02064174       0.00000000
Si       2.69984282       0.00368154       2.74435399       0.00000000
Si      -0.01324377      -2.71283886       2.74493650       0.00000000
