10
Lattice="16.28999089631971 0.0 0.0 0.0 16.28999089631971 0.0 0.0 0.0 34.26581377546328" Properties=species:S:1:pos:R:3:initial_magmoms:R:1 pbc="T T T"
Si      -1.90430589      -0.58570695       1.33773812       0.00000000
Si       1.58566860       1.20067074       1.52880440       0.00000000
Si      -1.32839574       1.65134988      -1.49217423       0.00000000
Si       1.71851355      -1.44335916      -1.58023742       0.00000000
Si       0.53820531      -2.11056498       2.28121356       0.00000000
Si       2.78018172       2.39451597      -0.09748629       0.00000000
Si      -2.57138155       0.11065797      -2.80095771       0.00000000
Si      -3.44719925       1.24185186       1.26255888       0.00000000
Si       0.09591552      -2.59239060      -2.88970622       0.00000000
Si       2.81575908       0.22569795      -2.92846088       0.00000000
