10
Lattice="16.28999089631971 0.0 0.0 0.0 16.28999089631971 0.0 0.0 0.0 34.26581377546328" Properties=species:S:1:pos:R:3:initial_magmoms:R:1 pbc="T T T"
Si      -1.42345278       1.28964672       1.37303193       0.00000000
Si       1.53285220      -1.85893335      -0.08727508       0.00000000
Si      -1.84740003      -0.89495631      -1.27753305       0.00000000
Si       1.20000841       2.08868751      -0.42811732       0.00000000
Si       0.13431105      -0.66774339      -2.58563122       0.00000000
Si       0.25513398       1.25722962       2.96786659       0.00000000
Si      -2.91191895      -1.87043409       0.79304844       0.00000000
Si       3.22596476       1.56952521       0.69494536       0.00000000
Si       2.47768361       0.62183817       2.70693227       0.00000000
Si      -3.20131080       0.04860936       2.15878174       0.00000000
