10
Lattice="16.28999089631971 0.0 0.0 0.0 16.28999089631971 0.0 0.0 0.0 34.26581377546328" Properties=species:S:1:pos:R:3:initial_magmoms:R:1 pbc="T T T"
Si      -1.25690382      -0.84248622       1.76993307       0.00000000
Si      -0.66731985      -1.55740545      -1.68831185       0.00000000
Si       2.37041396      -0.14165784       0.29026587       0.00000000
Si      -0.59865750       2.31852312      -0.10433946       0.00000000
Si      -0.03746700      -0.30690360      -3.49305901       0.00000000
Si       3.09689909       0.26476137      -1.91556286       0.00000000
Si      -1.24247088      -3.18192570       1.64020262       0.00000000
Si       0.95369872      -3.63517866       0.69768662       0.00000000
Si      -3.50653653      -0.18337653       1.60322979       0.00000000
Si       2.84228639      -2.26900152       1.32893180       0.00000000
