10
Lattice="16.28999089631971 0.0 0.0 0.0 16.28999089631971 0.0 0.0 0.0 34.26581377546328" Properties=species:S:1:pos:R:3:initial_magmoms:R:1 pbc="T T T"
Si       1.25690382       0.84248622      -1.76993307       0.00000000
Si       0.01443294      -2.33943948      -0.12973044       0.00000000
Si      -2.24963271       0.65910969      -0.16670328       0.00000000
Si       0.93268395       0.62402103       2.08322558       0.00000000
Si      -2.01504042       2.45969226       1.31478001       0.00000000
Si       0.58958397      -0.71491923      -3.45824492       0.00000000
Si       0.37931265      -2.85294915       2.14997542       0.00000000
Si       2.21060254      -2.79269244      -1.07224644       0.00000000
Si       0.65824632       3.16100934      -1.87427253       0.00000000
Si      -0.90227052       1.56848265       3.26734997       0.00000000
