10
Lattice="16.28999089631971 0.0 0.0 0.0 16.28999089631971 0.0 0.0 0.0 34.26581377546328" Properties=species:S:1:pos:R:3:initial_magmoms:R:1 pbc="T T T"
Si       1.34499882       1.33908687      -1.37961097       0.00000000
Si       1.35406076      -1.35878148       1.35696125       0.00000000
Si      -1.35975888       1.35565380       1.35641300       0.00000000
Si      -1.34578206      -1.36246302      -1.38739274       0.00000000
Si       2.56389843      -0.21398544      -2.79175391       0.00000000
Si      -2.63547765       0.07879473      -2.78741243       0.00000000
Si       2.71239807      -0.00175932       2.71457355       0.00000000
Si       2.71363285       2.71391400      -0.00322099       0.00000000
Si      -0.00289962       2.71331127       2.71505327       0.00000000
Si      -0.00237834      -2.71736748       2.71443649       0.00000000
