10
Lattice="16.28999089631971 0.0 0.0 0.0 16.28999089631971 0.0 0.0 0.0 34.26581377546328" Properties=species:S:1:pos:R:3:initial_magmoms:R:1 pbc="T T T"
Si       1.33083289      -1.27925370      -1.46027274       0.00000000
Si       1.24298581       1.54069191       1.30878349       0.00000000
Si      -0.77915284      -1.89506457       1.32204437       0.00000000
Si      -1.40977132       1.43273808      -1.42545865       0.00000000
Si      -2.59620460      -2.59230915      -0.03423157       0.00000000
Si       2.66729707      -2.70304857      -0.08874851       0.00000000
Si       2.57138155      -0.11065797       2.80095771       0.00000000
Si      -0.04005925      -2.63428848      -2.82309344       0.00000000
Si       2.66965912       2.80766295      -0.11951923       0.00000000
Si       2.67422032       0.07765443      -2.82449834       0.00000000
