10
Lattice="16.28999089631971 0.0 0.0 0.0 16.28999089631971 0.0 0.0 0.0 34.26581377546328" Properties=species:S:1:pos:R:3:initial_magmoms:R:1 pbc="T T T"
Si      -1.35464382       1.35509994       1.35672139       0.00000000
Si      -1.35705474      -1.35744570      -1.35637873       0.00000000
Si       1.35839597       1.35703845      -1.35648153       0.00000000
Si       1.35746199      -1.35549090       1.36196406       0.00000000
Si       0.00970884       2.69441487       2.71717775       0.00000000
Si      -2.71065600       0.00223173       2.71152389       0.00000000
Si      -2.71282257      -2.71476108       0.00003427       0.00000000
Si       0.00078192       2.71458189      -2.71337425       0.00000000
Si      -2.71435383       0.00008145      -2.71371690       0.00000000
Si      -2.71484253       2.71324611      -0.00017133       0.00000000
