10
Lattice="16.28999089631971 0.0 0.0 0.0 16.28999089631971 0.0 0.0 0.0 34.26581377546328" Properties=species:S:1:pos:R:3:initial_magmoms:R:1 pbc="T T T"
Si       1.26058536      -1.37567421      -1.38749211       0.00000000
Si       2.02758372       0.78927886       1.01786657       0.00000000
Si      -1.60453242      -1.12195746       1.41411666       0.00000000
Si      -1.45577214       1.36635863      -1.37628718       0.00000000
Si       2.49802263      -2.72732067       0.15820535       0.00000000
Si       2.60810852       0.00334442      -2.74664637       0.00000000
Si      -3.41923842       0.79987225       1.51852465       0.00000000
Si      -2.74479984      -2.69772174      -0.01144479       0.00000000
Si      -0.10376730      -2.71498914      -2.74794847       0.00000000
Si      -0.10862172       2.71735838      -2.74801700       0.00000000
