10
Lattice="16.28999089631971 0.0 0.0 0.0 16.28999089631971 0.0 0.0 0.0 34.26581377546328" Properties=species:S:1:pos:R:3:initial_magmoms:R:1 pbc="T T T"
Si       1.31823567      -1.76238252       0.82728000       0.00000000
Si      -1.36063854       0.42402448       1.89486629       0.00000000
Si       1.74865005       1.55338412      -0.48595804       0.00000000
Si      -1.44961452      -0.78224580      -1.81550663       0.00000000
Si       2.47578678      -2.39516757      -1.13944174       0.00000000
Si      -2.11369266      -1.78509078       2.46213716       0.00000000
Si      -0.19749996      -3.09648465       2.04961080       0.00000000
Si      -2.76693795       2.29398128       1.40411104       0.00000000
Si       3.11042889       2.07041732       1.38852008       0.00000000
Si       2.76679134      -1.28923947       2.62537959       0.00000000
