10
Lattice="16.28999089631971 0.0 0.0 0.0 16.28999089631971 0.0 0.0 0.0 34.26581377546328" Properties=species:S:1:pos:R:3:initial_magmoms:R:1 pbc="T T T"
Si      -1.54289336       1.82755881      -0.07517924       0.00000000
Si       1.90430589       0.58570695      -1.33773812       0.00000000
Si      -1.61771333      -1.76630841      -0.51761967       0.00000000
Si      -0.14435221       0.63636885       2.42317691       0.00000000
Si       2.44251120      -1.52485803       0.94347544       0.00000000
Si      -1.23103760      -1.43418789       2.39038450       0.00000000
Si      -1.44622850      -1.19869965      -2.81665147       0.00000000
Si      -3.29287919      -0.65805084       0.56079462       0.00000000
Si       2.10589464       0.08702118       2.73619529       0.00000000
Si       0.57591014       2.23705683      -2.82991234       0.00000000
