10
Lattice="16.28999089631971 0.0 0.0 0.0 16.28999089631971 0.0 0.0 0.0 34.26581377546328" Properties=species:S:1:pos:R:3:initial_magmoms:R:1 pbc="T T T"
Si      -1.80898007       1.51783704      -0.26197775       0.00000000
Si       1.84788873       0.95135229       1.21428141       0.00000000
Si       0.99683397      -0.57461346      -2.11997401       0.00000000
Si      -1.11249460      -1.80946062       1.18682419       0.00000000
Si       0.38797893       2.29143285       2.62283329       0.00000000
Si      -2.35233206      -0.42617898       2.63915068       0.00000000
Si       1.28658420      -2.84433174      -1.89289434       0.00000000
Si      -2.32878957       0.82003860      -2.69468056       0.00000000
Si      -1.13905382       3.43466505       1.20401879       0.00000000
Si      -0.21137904       0.59052879      -3.80064458       0.00000000
