10
Lattice="16.28999089631971 0.0 0.0 0.0 16.28999089631971 0.0 0.0 0.0 34.26581377546328" Properties=species:S:1:pos:R:3:initial_magmoms:R:1 pbc="T T T"
Si      -1.35406076       1.35878148      -1.35696125       0.00000000
Si      -1.35643910      -1.35858600       1.35747524       0.00000000
Si       1.35833732       1.35702216       1.35761230       0.00000000
Si       1.36031818      -1.36332639      -1.35901720       0.00000000
Si      -2.71381964       2.71443528      -0.00054825       0.00000000
Si       0.00065367       2.71454931       2.71498474       0.00000000
Si      -2.71308659      -2.71652040       0.00058252       0.00000000
Si      -0.00344057      -2.71604799      -2.71358327       0.00000000
Si      -2.71479704       0.00006516       2.71508754       0.00000000
Si       0.00059973      -2.71568961       2.71453928       0.00000000
