10
Lattice="16.28999089631971 0.0 0.0 0.0 16.28999089631971 0.0 0.0 0.0 34.26581377546328" Properties=species:S:1:pos:R:3:initial_magmoms:R:1 pbc="T T T"
Si      -1.35727466       1.35762489      -1.35723538       0.00000000
Si       1.35764118      -1.35769005      -1.35696125       0.00000000
Si      -1.35710035      -1.35775521       1.35768083       0.00000000
Si       1.35759231       1.35752715       1.35877734       0.00000000
Si       2.71332756      -0.00091224      -2.71481341       0.00000000
Si       0.00019548      -2.71511946      -2.71354558       0.00000000
Si       0.00107514       2.71480995      -2.71481341       0.00000000
Si      -2.71501224      -2.71508688      -0.00030839       0.00000000
Si      -2.71495830       2.71515204       0.00013706       0.00000000
Si       2.71520091       2.71498914       0.00020559       0.00000000
