10
Lattice="16.28999089631971 0.0 0.0 0.0 16.28999089631971 0.0 0.0 0.0 34.26581377546328" Properties=species:S:1:pos:R:3:initial_magmoms:R:1 pbc="T T T"
Si       1.36347300      -1.33612209       1.34901158       0.00000000
Si       1.36780614       1.34529336      -1.34579059       0.00000000
Si      -1.35400851       1.35650088       1.35699552       0.00000000
Si      -1.34944731      -1.37350764      -1.34798360       0.00000000
Si       0.00897579       2.70244584      -2.70336862       0.00000000
Si      -2.70571687      -0.01283652      -2.70446513       0.00000000
Si      -2.69283474      -2.73041577       0.01624200       0.00000000
Si       2.72701116       2.69891091       0.04177005       0.00000000
Si       2.72525184      -0.01360215      -2.70518471       0.00000000
Si       0.00899208      -2.72722293      -2.70521898       0.00000000
