10
Lattice="16.28999089631971 0.0 0.0 0.0 16.28999089631971 0.0 0.0 0.0 34.26581377546328" Properties=species:S:1:pos:R:3:initial_magmoms:R:1 pbc="T T T"
Si      -0.74828115      -0.94768704       2.01198691       0.00000000
Si       1.41802821      -1.76098158      -0.68685862       0.00000000
Si      -2.02595635       0.51916230      -1.12306267       0.00000000
Si       1.48032117       1.76098158       0.59324437       0.00000000
Si      -2.29813523       2.55287106       0.18229423       0.00000000
Si      -3.22596476      -1.56952521      -0.69494536       0.00000000
Si       3.25291752       0.60685137       1.61460605       0.00000000
Si       3.58839378      -1.02196944      -0.09138698       0.00000000
Si      -2.97083078      -0.31229559       2.27292123       0.00000000
Si      -1.22489560       1.12531320      -3.36857124       0.00000000
