10
Lattice="16.28999089631971 0.0 0.0 0.0 16.28999089631971 0.0 0.0 0.0 34.26581377546328" Properties=species:S:1:pos:R:3:initial_magmoms:R:1 pbc="T T T"
Si       1.51490484       1.26635202      -1.38841728       0.00000000
Si      -0.50254650      -0.08677683       2.38431945       0.00000000
Si      -1.29647223      -1.45476216      -1.61128226       0.00000000
Si       1.38543192      -1.97856711       1.21170838       0.00000000
Si      -0.77195052       3.02006826       1.23809308       0.00000000
Si      -2.72314554      -2.72173320      -0.18297955       0.00000000
Si      -2.97519094       0.23135058       2.48375890       0.00000000
Si       0.08304642       2.60102430      -2.92750144       0.00000000
Si      -2.66322441      -0.09576891      -2.93997420       0.00000000
Si       3.18339180       2.46599649       0.16358509       0.00000000
