10
Lattice="16.28999089631971 0.0 0.0 0.0 16.28999089631971 0.0 0.0 0.0 34.26581377546328" Properties=species:S:1:pos:R:3:initial_magmoms:R:1 pbc="T T T"
Si       1.35666378       1.35615879       1.35661859       0.00000000
Si      -1.35773892      -1.35496473       1.35747524       0.00000000
Si      -1.35711990       1.35731538      -1.35723538       0.00000000
Si       1.35817875      -1.35771774      -1.35757803       0.00000000
Si      -2.71285515      -0.00110772       2.71046165       0.00000000
Si      -2.71477737       2.71438641      -0.00003427       0.00000000
Si       0.00011403      -2.71470402      -2.71495047       0.00000000
Si      -0.00053757       2.71495656      -2.71484768       0.00000000
Si       2.71469592       2.71513575       0.00058252       0.00000000
Si      -2.71463076      -2.71522310       0.00006853       0.00000000
