10
Lattice="16.28999089631971 0.0 0.0 0.0 16.28999089631971 0.0 0.0 0.0 34.26581377546328" Properties=species:S:1:pos:R:3:initial_magmoms:R:1 pbc="T T T"
Si      -1.56059829       0.23778187       1.77853379       0.00000000
Si       0.98763012      -2.17879794      -0.00613358       0.00000000
Si       1.27153224       2.11279345      -0.00445456       0.00000000
Si      -1.46111526       0.13054480      -2.03196389       0.00000000
Si      -2.51274879      -1.94790348       1.91175935       0.00000000
Si      -3.51751599       1.22104627      -0.68356910       0.00000000
Si       0.10205685       1.18646260      -3.60096212       0.00000000
Si      -0.33689349       0.48296266       3.78966406       0.00000000
Si       1.47805686      -2.83707684       2.16261951       0.00000000
Si       1.06130979       3.02700454      -2.29087653       0.00000000
