10
Lattice="16.28999089631971 0.0 0.0 0.0 16.28999089631971 0.0 0.0 0.0 34.26581377546328" Properties=species:S:1:pos:R:3:initial_magmoms:R:1 pbc="T T T"
Si      -0.58297023      -0.96997029       2.04477931       0.00000000
Si       2.31779007      -0.35447203      -0.12918219       0.00000000
Si      -0.65197467       2.29534245      -0.29896939       0.00000000
Si      -1.18917000      -1.49230151      -1.46969584       0.00000000
Si      -3.35196072      -1.27546532      -0.49575807       0.00000000
Si       0.91199565      -2.80597598       2.12684598       0.00000000
Si       3.18065508       1.76655276      -0.59865837       0.00000000
Si      -2.86343991      -1.58155442       1.85631723       0.00000000
Si      -0.30936339       2.76897420      -2.61828656       0.00000000
Si      -1.37914398      -0.50384481      -3.62364610       0.00000000
