10
Lattice="16.28999089631971 0.0 0.0 0.0 16.28999089631971 0.0 0.0 0.0 34.26581377546328" Properties=species:S:1:pos:R:3:initial_magmoms:R:1 pbc="T T T"
Si      -1.69170021      -1.00376994       1.32646466       0.00000000
Si       1.31333238      -1.39575621      -1.44043282       0.00000000
Si      -1.39167913       1.32130243      -1.46983290       0.00000000
Si       0.91812069       1.67903734       1.57389824       0.00000000
Si      -3.35874455       0.75075332       0.93429220       0.00000000
Si       2.48129280       2.73495514       0.00490001       0.00000000
Si      -2.66317651       2.75753308      -0.16104941       0.00000000
Si       2.65432518      -0.03588560      -2.82347037       0.00000000
Si       2.74551660      -2.73481050       0.09152404       0.00000000
Si      -0.05885577       2.68009042      -2.83330466       0.00000000
