10
Lattice="16.28999089631971 0.0 0.0 0.0 16.28999089631971 0.0 0.0 0.0 34.26581377546328" Properties=species:S:1:pos:R:3:initial_magmoms:R:1 pbc="T T T"
Si       0.22358025      -2.10686715      -1.03510228       0.00000000
Si      -0.75588858       0.08083098       2.26980304       0.00000000
Si      -1.56765186       1.13655330      -1.46040980       0.00000000
Si       2.35616931       0.64972665       0.26370985       0.00000000
Si       0.94322358       1.23802371       3.30795498       0.00000000
Si      -0.68230665       0.37939410      -3.60199009       0.00000000
Si      -1.52554221       3.40094475      -0.73579023       0.00000000
Si       2.33183205       2.97769797       0.41677533       0.00000000
Si       2.84530914       0.05097141       2.52734504       0.00000000
Si      -0.91882116      -2.18186631       2.98979672       0.00000000
