10
Lattice="16.28999089631971 0.0 0.0 0.0 16.28999089631971 0.0 0.0 0.0 34.26581377546328" Properties=species:S:1:pos:R:3:initial_magmoms:R:1 pbc="T T T"
Si       1.23108417      -1.39201308       1.42262144       0.00000000
Si      -1.84704165      -0.95174325      -1.21421527       0.00000000
Si       1.89468990       0.54911961      -1.40515413       0.00000000
Si      -1.45916046       1.34004798       1.40837371       0.00000000
Si       2.62760958       2.59884144      -0.10830402       0.00000000
Si       2.55399507      -2.75877666      -0.00957045       0.00000000
Si      -0.85072896      -1.52578656      -3.33411493       0.00000000
Si       1.41641550      -0.82627767      -3.42755785       0.00000000
Si       2.59338429      -0.01958058       2.77981570       0.00000000
Si      -0.12245193       2.69560404       2.78272829       0.00000000
