10
Lattice="16.28999089631971 0.0 0.0 0.0 16.28999089631971 0.0 0.0 0.0 34.26581377546328" Properties=species:S:1:pos:R:3:initial_magmoms:R:1 pbc="T T T"
Si       1.35654975      -1.35711990      -1.35709831       0.00000000
Si       1.35809730       1.35651717       1.35678992       0.00000000
Si      -1.35840681      -1.35728280       1.35658433       0.00000000
Si      -1.35798327       1.35728280      -1.35709831       0.00000000
Si       2.71360449       0.00076563      -2.71460782       0.00000000
Si       2.71386513      -2.71459818       0.00027413       0.00000000
Si      -2.71515204      -0.00364896       2.71371690       0.00000000
Si      -0.00236205       2.71406061      -2.71495047       0.00000000
Si      -2.71546155      -0.00013032      -2.71368264       0.00000000
Si       2.71437012       2.71480995      -0.00017133       0.00000000
