10
Lattice="16.28999089631971 0.0 0.0 0.0 16.28999089631971 0.0 0.0 0.0 34.26581377546328" Properties=species:S:1:pos:R:3:initial_magmoms:R:1 pbc="T T T"
Si      -1.35738054      -1.35711990      -1.35812629       0.00000000
Si       1.35780408       1.35801585      -1.35788643       0.00000000
Si       1.35907470      -1.35679410       1.35785216       0.00000000
Si      -1.36085031       1.36011726       1.36090182       0.00000000
Si      -0.01176138      -2.70485676       2.70203226       0.00000000
Si      -2.71400522      -2.71498914      -0.00030839       0.00000000
Si       2.71516833       2.71479366      -0.00102797       0.00000000
Si       0.00032580      -2.71484253      -2.71512180       0.00000000
Si      -2.71462099       0.00048870      -2.71543020       0.00000000
Si      -2.71398079       2.71642266      -0.00044546       0.00000000
