10
Lattice="16.28999089631971 0.0 0.0 0.0 16.28999089631971 0.0 0.0 0.0 34.26581377546328" Properties=species:S:1:pos:R:3:initial_magmoms:R:1 pbc="T T T"
Si      -1.77705981       1.15206138      -1.02201273       0.00000000
Si       0.33344001      -1.63554858      -1.70129860       0.00000000
Si       1.88195112       1.40260158       0.51210287       0.00000000
Si      -0.82363869      -0.94843638       2.06129545       0.00000000
Si      -3.25303155      -0.60781248      -1.61477738       0.00000000
Si       2.45807955       0.75243510       2.73348829       0.00000000
Si      -1.83839166      -2.36701845      -2.30742692       0.00000000
Si       3.62020815       0.70999965      -0.95680485       0.00000000
Si      -3.09032703      -0.34764489       2.23341272       0.00000000
Si       0.51776136      -0.14081076       3.83636839       0.00000000
