10
Lattice="16.28999089631971 0.0 0.0 0.0 16.28999089631971 0.0 0.0 0.0 34.26581377546328" Properties=species:S:1:pos:R:3:initial_magmoms:R:1 pbc="T T T"
Si      -2.11352976      -0.38066472      -0.97153916       0.00000000
Si       1.60031331      -1.24729272      -1.24703646       0.00000000
Si       0.46245681       2.34558081      -0.15375079       0.00000000
Si      -0.11660382      -0.73839312       2.29697584       0.00000000
Si      -1.80423153       2.94637230       0.01836649       0.00000000
Si       3.15793053      -1.38246714       0.56757926       0.00000000
Si      -1.54929303      -2.33033337      -2.22697075       0.00000000
Si       2.27258532      -0.62530794       2.70915955       0.00000000
Si      -2.71695534       1.73925072      -1.81900174       0.00000000
Si       0.54450954      -3.27772719      -1.78281702       0.00000000
