10
Lattice="16.28999089631971 0.0 0.0 0.0 16.28999089631971 0.0 0.0 0.0 34.26581377546328" Properties=species:S:1:pos:R:3:initial_magmoms:R:1 pbc="T T T"
Si      -1.34732961      -1.34759025       1.39595234       0.00000000
Si       1.36704051       1.36777356       1.39173764       0.00000000
Si      -1.62927693       1.14619698      -1.42393725       0.00000000
Si       1.40273190      -1.44435285      -1.49507997       0.00000000
Si      -0.46607319       1.19369862      -3.58508131       0.00000000
Si      -2.68403814      -2.70314631       0.02159775       0.00000000
Si       2.71992501      -2.70058878       0.03615388       0.00000000
Si      -2.69693982       2.72668536       0.02200209       0.00000000
Si       2.72740212       2.70833127       0.01782166       0.00000000
Si      -2.70456354       0.00946449       2.75178282       0.00000000
