10
Lattice="16.28999089631971 0.0 0.0 0.0 16.28999089631971 0.0 0.0 0.0 34.26581377546328" Properties=species:S:1:pos:R:3:initial_magmoms:R:1 pbc="T T T"
Si      -1.35775521       1.35744479       1.35973678       0.00000000
Si       1.36036161       1.34055771      -1.37391598       0.00000000
Si       1.35770634      -1.35876519       1.35994238       0.00000000
Si      -1.36704051      -1.36777356      -1.39173764       0.00000000
Si      -2.71337643       2.71174973       0.00164476       0.00000000
Si       2.71194291      -2.71453302       0.00023986       0.00000000
Si      -2.71437012      -2.71536381       0.00421470       0.00000000
Si       0.00030951       2.71443106       2.71710922       0.00000000
Si       2.71850778       2.71351557       0.00246714       0.00000000
Si       2.71505430       0.00021177       2.71724629       0.00000000
