10
Lattice="16.28999089631971 0.0 0.0 0.0 16.28999089631971 0.0 0.0 0.0 34.26581377546328" Properties=species:S:1:pos:R:3:initial_magmoms:R:1 pbc="T T T"
Si      -1.35736425      -1.35677781      -1.35685845       0.00000000
Si       1.35785295       1.35802041      -1.35699552       0.00000000
Si       1.35786924      -1.35783666       1.36052490       0.00000000
Si      -1.35736425       1.35625424       1.36299204       0.00000000
Si       0.00009774      -2.71497285      -2.71471061       0.00000000
Si      -2.71516833      -2.71479366       0.00102797       0.00000000
Si       2.71523349       0.00140094      -2.71474488       0.00000000
Si      -2.71547784       0.00102627      -2.71453928       0.00000000
Si       2.71555929      -2.71448415      -0.00071958       0.00000000
Si       0.00048870       2.71562023      -2.71488194       0.00000000
