10
Lattice="16.28999089631971 0.0 0.0 0.0 16.28999089631971 0.0 0.0 0.0 34.26581377546328" Properties=species:S:1:pos:R:3:initial_magmoms:R:1 pbc="T T T"
Si      -1.42516323      -1.52547705       1.12669485       0.00000000
Si       1.26936567      -1.37249766      -1.53041490       0.00000000
Si      -1.43218422       1.33905429      -1.53195686       0.00000000
Si       1.66330674       1.20808269       1.56121988       0.00000000
Si       2.68583004      -2.77288380      -0.11174088       0.00000000
Si      -2.74551660       2.73481050      -0.09152404       0.00000000
Si       2.77493634       2.76349410       0.04320922       0.00000000
Si       2.62404207      -0.01516599      -2.91746155       0.00000000
Si      -2.82955671      -2.74401792      -0.25397835       0.00000000
Si      -0.09119142       2.69892491      -2.91499441       0.00000000
