10
Lattice="16.28999089631971 0.0 0.0 0.0 16.28999089631971 0.0 0.0 0.0 34.26581377546328" Properties=species:S:1:pos:R:3:initial_magmoms:R:1 pbc="T T T"
Si       1.38675304      -1.30204082       1.38755036       0.00000000
Si       1.18356787       1.62578435      -1.24849927       0.00000000
Si      -1.34567487       1.41473111       1.37422438       0.00000000
Si      -0.77540237      -1.80362621      -1.41349786       0.00000000
Si       0.36776467      -1.05249364      -3.51947595       0.00000000
Si       2.45441593      -2.88252920      -0.05838898       0.00000000
Si      -2.65964128      -2.71433495      -0.13979089       0.00000000
Si       0.02202245      -2.66077343       2.75708032       0.00000000
Si      -2.69622862       0.05488264       2.75728591       0.00000000
Si       2.73735694       0.05079711       2.75893067       0.00000000
