10
Lattice="16.28999089631971 0.0 0.0 0.0 16.28999089631971 0.0 0.0 0.0 34.26581377546328" Properties=species:S:1:pos:R:3:initial_magmoms:R:1 pbc="T T T"
Si      -0.49042674       0.65827890      -2.16875310       0.00000000
Si       0.02893104       1.79880274       1.48816512       0.00000000
Si      -2.26517337      -0.76626531       0.17016413       0.00000000
Si       1.97817615      -1.40012550       0.06630439       0.00000000
Si      -1.59676209      -2.08656981      -1.61868368       0.00000000
Si       0.21890502       0.81034605       3.64211538       0.00000000
Si      -1.47805686       2.83707684      -2.16261951       0.00000000
Si       1.74819393       3.30096392       1.01402879       0.00000000
Si      -0.38346660      -3.87679194      -0.72835454       0.00000000
Si       1.77948702      -3.38727744      -1.14739142       0.00000000
