10
Lattice="16.28999089631971 0.0 0.0 0.0 16.28999089631971 0.0 0.0 0.0 34.26581377546328" Properties=species:S:1:pos:R:3:initial_magmoms:R:1 pbc="T T T"
Si       1.35482301      -1.35567121       1.35798922       0.00000000
Si      -1.36096434       1.35873098       1.35617314       0.00000000
Si       1.36231641       1.35211724      -1.36329358       0.00000000
Si      -1.35814617      -1.37295785      -1.37638312       0.00000000
Si      -2.57787621       0.06457030      -2.79124678       0.00000000
Si       2.70842427      -2.71454184      -0.00143916       0.00000000
Si       2.71065600       0.00098392       2.71549873       0.00000000
Si       2.70933651       2.71718666       0.00215875       0.00000000
Si      -0.00345348      -2.71330380       2.71477915       0.00000000
Si      -0.00325800       2.71552508       2.71477915       0.00000000
