10
Lattice="16.28999089631971 0.0 0.0 0.0 16.28999089631971 0.0 0.0 0.0 34.26581377546328" Properties=species:S:1:pos:R:3:initial_magmoms:R:1 pbc="T T T"
Si       1.35738054      -1.35661947      -1.35774936       0.00000000
Si      -1.35736425       1.35759983      -1.35788643       0.00000000
Si      -1.35785295      -1.35802041       1.35699552       0.00000000
Si       1.35842310       1.35785232       1.35829762       0.00000000
Si       2.71476108       2.71491032      -0.00010280       0.00000000
Si      -2.71521720      -2.71479822       0.00013706       0.00000000
Si       2.71565703       0.00101312      -2.71453928       0.00000000
Si       2.71531494      -2.71531950      -0.00017133       0.00000000
Si       0.00003258      -2.71559643      -2.71505327       0.00000000
Si      -2.71542897       0.00061355      -2.71525887       0.00000000
