10
Lattice="16.28999089631971 0.0 0.0 0.0 16.28999089631971 0.0 0.0 0.0 34.26581377546328" Properties=species:S:1:pos:R:3:initial_magmoms:R:1 pbc="T T T"
Si       1.35633798       1.35705800      -1.35840041       0.00000000
Si      -1.35842310      -1.35785232      -1.35829762       0.00000000
Si       1.35962856      -1.36070763       1.35898293       0.00000000
Si      -1.36287027       1.36047890       1.36035357       0.00000000
Si       2.71306692      -0.00018408      -2.71532740       0.00000000
Si       2.71516833       2.71368920      -0.00126784       0.00000000
Si       2.71298547      -2.71645917      -0.00202168       0.00000000
Si      -0.00084708       2.71435709      -2.71604698       0.00000000
Si      -0.00104256      -2.71447179      -2.71604698       0.00000000
Si      -2.71730232       2.71362404      -0.00198742       0.00000000
