10
Lattice="16.28999089631971 0.0 0.0 0.0 16.28999089631971 0.0 0.0 0.0 34.26581377546328" Properties=species:S:1:pos:R:3:initial_magmoms:R:1 pbc="T T T"
Si       0.75122964      -1.68511905      -1.41819429       0.00000000
Si      -2.24422443       0.62646453       0.23578320       0.00000000
Si       1.15807239       1.72639791      -1.12450184       0.00000000
Si       0.01497051      -0.57661713       2.39319430       0.00000000
Si      -2.18313693       0.37688544       2.60553967       0.00000000
Si       3.01967730      -1.26768780      -1.07118420       0.00000000
Si      -3.08140011      -1.15632936      -1.11850532       0.00000000
Si       2.15697519       0.31934916       2.80578920       0.00000000
Si       0.93335184       3.47949513       0.33093941       0.00000000
Si       3.47929965      -0.88669728       1.22472940       0.00000000
