10
Lattice="16.28999089631971 0.0 0.0 0.0 16.28999089631971 0.0 0.0 0.0 34.26581377546328" Properties=species:S:1:pos:R:3:initial_magmoms:R:1 pbc="T T T"
Si       1.64304198       1.17152793       1.11757706       0.00000000
Si      -1.12563900      -1.60937055       1.22578513       0.00000000
Si       1.23481458      -0.71667855      -1.84843716       0.00000000
Si      -1.76248026       1.73780091      -0.06341612       0.00000000
Si      -0.94602546      -0.70890822      -2.80034200       0.00000000
Si       0.21882357       2.45926872       2.53787870       0.00000000
Si      -2.41632828       1.15813755      -2.31722802       0.00000000
Si      -2.51618598      -0.26207352       2.54614362       0.00000000
Si      -2.74688496      -2.67300981      -0.03228321       0.00000000
Si       2.91639870       2.47503744      -0.48965982       0.00000000
