10
Lattice="16.28999089631971 0.0 0.0 0.0 16.28999089631971 0.0 0.0 0.0 34.26581377546328" Properties=species:S:1:pos:R:3:initial_magmoms:R:1 pbc="T T T"
Si      -1.35707103       1.35715248       1.35675565       0.00000000
Si      -1.35783666      -1.35689184      -1.35768083       0.00000000
Si       1.35790182      -1.35723393       1.35740671       0.00000000
Si       1.35749457       1.35855342      -1.35802349       0.00000000
Si      -2.71334385      -0.00114030       2.71371690       0.00000000
Si      -0.00081450      -2.71394658       2.71337425       0.00000000
Si       0.00097740       2.71477737       2.71320292       0.00000000
Si      -2.71448415       2.71428867      -0.00078811       0.00000000
Si      -2.71489140      -2.71477737      -0.00017133       0.00000000
Si      -2.71293660      -0.00009774      -2.71676656       0.00000000
