10
Lattice="16.28999089631971 0.0 0.0 0.0 16.28999089631971 0.0 0.0 0.0 34.26581377546328" Properties=species:S:1:pos:R:3:initial_magmoms:R:1 pbc="T T T"
Si      -1.35871632      -1.35671265       1.35596754       0.00000000
Si      -1.35790182       1.35723393      -1.35740671       0.00000000
Si       1.35878148       1.35788553       1.35603607       0.00000000
Si       1.35773892      -1.35801585      -1.35792069       0.00000000
Si      -2.71352304      -0.00135207       2.71313439       0.00000000
Si      -0.00205254       2.71417464       2.71474488       0.00000000
Si      -2.71497285       2.71438641      -0.00065105       0.00000000
Si       2.71161711       0.00236205       2.71779454       0.00000000
Si       2.71456560       2.71524978      -0.00037692       0.00000000
Si       0.00131949      -2.71586880      -2.71460782       0.00000000
