10
Lattice="16.28999089631971 0.0 0.0 0.0 16.28999089631971 0.0 0.0 0.0 34.26581377546328" Properties=species:S:1:pos:R:3:initial_magmoms:R:1 pbc="T T T"
Si      -2.16295362      -0.48951450       0.41903687       0.00000000
Si       0.19868913       1.98715194       1.21369580       0.00000000
Si       1.36146933      -1.80059886       0.84667447       0.00000000
Si       0.40469247       1.56670704      -1.82732834       0.00000000
Si       2.01192903       2.74722705      -0.12969618       0.00000000
Si      -2.72174949      -1.43721783      -1.74351411       0.00000000
Si       0.71736273       1.10123658       3.37796008       0.00000000
Si      -3.37624911       1.30070763      -0.47129227       0.00000000
Si       3.44031768      -1.19718468      -0.30273863       0.00000000
Si       1.55398455      -1.17621945       3.20162810       0.00000000
