10
Lattice="16.28999089631971 0.0 0.0 0.0 16.28999089631971 0.0 0.0 0.0 34.26581377546328" Properties=species:S:1:pos:R:3:initial_magmoms:R:1 pbc="T T T"
Si       1.01283075      -1.74532689      -1.19073769       0.00000000
Si      -2.27173824      -0.56995452      -0.13771438       0.00000000
Si       0.28023687       1.95033654      -1.30525411       0.00000000
Si       0.52611813      -0.27797256       2.34984802       0.00000000
Si      -0.17583426      -3.54222792      -0.32778696       0.00000000
Si      -2.79349065      -0.48726648       2.15956985       0.00000000
Si      -2.36115405      -2.75240727      -1.06217229       0.00000000
Si       2.77563681      -0.93711483       2.51655130       0.00000000
Si       3.36523707      -1.65180600      -0.94179642       0.00000000
Si      -0.49146930       3.83679999      -0.03375185       0.00000000
