10
Lattice="16.28999089631971 0.0 0.0 0.0 16.28999089631971 0.0 0.0 0.0 34.26581377546328" Properties=species:S:1:pos:R:3:initial_magmoms:R:1 pbc="T T T"
Si       1.60941942      -1.07300601       1.23912105       0.00000000
Si      -2.24795484      -0.64975923       0.08655549       0.00000000
Si       0.52175241      -0.08268804      -2.29728424       0.00000000
Si       0.12712716       2.32661925       0.51724275       0.00000000
Si       3.31960878       0.20929392       0.19027817       0.00000000
Si      -2.75879295       0.86436369      -1.72590147       0.00000000
Si      -0.81847476       1.75760955      -2.82878157       0.00000000
Si       2.79349065       0.48726648      -2.15956985       0.00000000
Si       0.92442492      -0.61634844       3.42716581       0.00000000
Si      -2.03714595       2.86645356       1.20183982       0.00000000
