10
Lattice="16.28999089631971 0.0 0.0 0.0 16.28999089631971 0.0 0.0 0.0 34.26581377546328" Properties=species:S:1:pos:R:3:initial_magmoms:R:1 pbc="T T T"
Si      -1.36138951      -1.35534429       1.38775938       0.00000000
Si       1.34861652       1.36371735       1.39300205       0.00000000
Si      -1.48476182       1.33462341      -1.41440792       0.00000000
Si       1.49776776      -1.34798121      -1.49684123       0.00000000
Si      -0.20044845      -2.49683346      -2.61429082       0.00000000
Si       2.70588303       2.70343953       0.03560220       0.00000000
Si       2.71832859      -2.71261080       0.01235283       0.00000000
Si      -2.72969119      -2.70788670       0.00843282       0.00000000
Si      -2.72509613       2.71783989       0.03794598       0.00000000
Si       2.70831024       0.00353493       2.75133394       0.00000000
