10
Lattice="16.28999089631971 0.0 0.0 0.0 16.28999089631971 0.0 0.0 0.0 34.26581377546328" Properties=species:S:1:pos:R:3:initial_magmoms:R:1 pbc="T T T"
Si       1.35760860       1.35718506      -1.35644726       0.00000000
Si       1.35487188      -1.35783666       1.35894867       0.00000000
Si      -1.35804843      -1.35762489      -1.35644726       0.00000000
Si      -1.35769005       1.35664749       1.36124448       0.00000000
Si       2.71370223       2.71389771       0.00000000       0.00000000
Si       2.71420722       0.00076563      -2.71351131       0.00000000
Si      -0.00097740      -2.71477737      -2.71320292       0.00000000
Si      -2.71546155      -0.00048870      -2.71399103       0.00000000
Si       2.71793763       0.00296478       2.71169522       0.00000000
Si       2.71570590      -2.71412577       0.00023986       0.00000000
