10
Lattice="16.28999089631971 0.0 0.0 0.0 16.28999089631971 0.0 0.0 0.0 34.26581377546328" Properties=species:S:1:pos:R:3:initial_magmoms:R:1 pbc="T T T"
Si       1.35335691      -1.35575154      -1.36100462       0.00000000
Si      -1.35962856       1.36070763      -1.35898293       0.00000000
Si      -1.36681245      -1.35149985       1.37841166       0.00000000
Si       1.36207206       1.36734255       1.36799485       0.00000000
Si      -0.11166795       2.63626676       2.75723451       0.00000000
Si       2.70892926       2.71827062      -0.00376924       0.00000000
Si       2.71365336      -2.71378368      -0.00418043       0.00000000
Si       2.71163340       0.00244120      -2.71710922       0.00000000
Si      -0.00273672      -2.71246419      -2.71745188       0.00000000
Si       0.07177374      -2.69693982       2.73259738       0.00000000
