10
Lattice="16.28999089631971 0.0 0.0 0.0 16.28999089631971 0.0 0.0 0.0 34.26581377546328" Properties=species:S:1:pos:R:3:initial_magmoms:R:1 pbc="T T T"
Si      -1.35752715       1.35822762      -1.35757803       0.00000000
Si       1.35860948      -1.35795069      -1.35870881       0.00000000
Si      -1.36010097      -1.36866951       1.35219830       0.00000000
Si       1.37079765       1.35519768       1.36330043       0.00000000
Si       0.11276070      -2.63801889       2.66697831       0.00000000
Si      -2.55629196       0.04204449       2.78875908       0.00000000
Si       2.71561535       2.71173114      -0.00171329       0.00000000
Si       0.00049308      -2.71450044      -2.71529313       0.00000000
Si      -2.71456560       0.00048870      -2.71597845       0.00000000
Si       2.71515923       0.00003258      -2.71577285       0.00000000
