10
Lattice="16.28999089631971 0.0 0.0 0.0 16.28999089631971 0.0 0.0 0.0 34.26581377546328" Properties=species:S:1:pos:R:3:initial_magmoms:R:1 pbc="T T T"
Si       1.21775148       1.22575734       1.54610865       0.00000000
Si      -0.23594436       1.41599196      -1.84100041       0.00000000
Si       1.35814358      -1.89442926      -0.21710832       0.00000000
Si      -2.20118625      -0.78279966       0.44172085       0.00000000
Si       0.25815514      -0.17415639       3.21560856       0.00000000
Si      -2.66080860      -1.16379018      -1.85419275       0.00000000
Si      -0.27846126      -3.55493412      -0.49579234       0.00000000
Si      -2.40324741       1.04982534      -2.51264500       0.00000000
Si       2.00900402      -1.73817558      -2.48211414       0.00000000
Si       1.19569482       0.33519933      -3.41767418       0.00000000
