10
Lattice="16.28999089631971 0.0 0.0 0.0 16.28999089631971 0.0 0.0 0.0 34.26581377546328" Properties=species:S:1:pos:R:3:initial_magmoms:R:1 pbc="T T T"
Si       0.96557346      -1.57022568      -1.62337810       0.00000000
Si      -1.45684728       1.18004760      -1.71966509       0.00000000
Si       1.62139257       1.80937917       0.88847878       0.00000000
Si      -1.39090536      -1.19317734       1.89089146       0.00000000
Si      -3.10821345       0.40904190       1.44012443       0.00000000
Si       0.40508343       2.71736652       2.64467125       0.00000000
Si      -1.94869125       2.58698788       2.04950800       0.00000000
Si       0.14659371       2.30275440      -3.13433000       0.00000000
Si       2.49166953      -2.98483299      -0.46001881       0.00000000
Si       2.64707613      -0.42274179      -2.97410297       0.00000000
