10
Lattice="16.28999089631971 0.0 0.0 0.0 16.28999089631971 0.0 0.0 0.0 34.26581377546328" Properties=species:S:1:pos:R:3:initial_magmoms:R:1 pbc="T T T"
Si       2.02600359      -1.08413208       0.19075789       0.00000000
Si      -0.28403244       1.63377201      -1.63509702       0.00000000
Si      -0.72374841       0.93250476       2.01945686       0.00000000
Si      -1.34646624      -1.92366981      -0.12613253       0.00000000
Si       1.70517204      -1.68076962       2.44551823       0.00000000
Si      -3.04481277       0.97288767       1.46853080       0.00000000
Si       0.93227670       0.72578466      -3.39128948       0.00000000
Si       3.54231981       0.76706352       0.27666234       0.00000000
Si      -0.18841014      -0.83166966       3.54130530       0.00000000
Si      -3.09304746      -1.38365631       1.42556145       0.00000000
