10
Lattice="16.28999089631971 0.0 0.0 0.0 16.28999089631971 0.0 0.0 0.0 34.26581377546328" Properties=species:S:1:pos:R:3:initial_magmoms:R:1 pbc="T T T"
Si       1.34646624       1.92366981       0.12613253       0.00000000
Si       1.02108978      -1.99370052       0.81247716       0.00000000
Si      -1.74658122       0.54001350       1.55169398       0.00000000
Si      -0.73355499      -0.35310204      -2.26274428       0.00000000
Si       3.37246983       0.83953773       0.31689042       0.00000000
Si       0.62271783       2.85617457       2.14558939       0.00000000
Si      -0.75660534      -3.23532432       1.59781579       0.00000000
Si      -1.69834653       2.89655748       1.59466333       0.00000000
Si      -3.74542938      -0.39687327       0.79414494       0.00000000
Si      -2.45086308       1.24911720      -2.71351131       0.00000000
