10
Lattice="16.28999089631971 0.0 0.0 0.0 16.28999089631971 0.0 0.0 0.0 34.26581377546328" Properties=species:S:1:pos:R:3:initial_magmoms:R:1 pbc="T T T"
Si      -1.21630914       0.90798735       1.75619247       0.00000000
Si       2.21716089      -0.82842795      -0.10314016       0.00000000
Si       0.62071416       2.21176565      -0.92939219       0.00000000
Si      -1.62139257      -1.80937917      -0.88847878       0.00000000
Si       0.55293147       1.27905075      -3.00545621       0.00000000
Si       2.21997581      -0.47547252      -2.61328375       0.00000000
Si      -0.93227670      -0.72578466       3.39128948       0.00000000
Si      -3.57008382       0.77760871       1.16102922       0.00000000
Si       2.14811084      -3.23074683       0.02593924       0.00000000
Si      -0.69794505       3.24652274       2.17156290       0.00000000
