10
Lattice="16.28999089631971 0.0 0.0 0.0 16.28999089631971 0.0 0.0 0.0 34.26581377546328" Properties=species:S:1:pos:R:3:initial_magmoms:R:1 pbc="T T T"
Si       1.65414103       1.52350842      -0.49829374       0.00000000
Si      -1.68632451       0.10251297       1.59997454       0.00000000
Si       1.37755475      -1.77950331       0.63134797       0.00000000
Si      -1.44868599      -0.47304531      -1.79816811       0.00000000
Si      -2.96425872      -1.80709857      -0.57552893       0.00000000
Si      -1.85202639      -2.69843850       1.37717809       0.00000000
Si       2.68987715       1.69016962       1.60511441       0.00000000
Si       0.34339320       3.35973824      -1.23634552       0.00000000
Si      -0.01650177      -3.64237884       0.19298517       0.00000000
Si       2.91555881       0.53519166      -2.27531984       0.00000000
