10
Lattice="16.28999089631971 0.0 0.0 0.0 16.28999089631971 0.0 0.0 0.0 34.26581377546328" Properties=species:S:1:pos:R:3:initial_magmoms:R:1 pbc="T T T"
Si       0.13882338      -0.18933867       2.34470815       0.00000000
Si       1.97277601       0.38362950      -1.25868684       0.00000000
Si      -0.51218922      -2.16922527      -0.81621214       0.00000000
Si      -1.48230759       1.88859744      -0.04129033       0.00000000
Si       1.36935043       2.50354494      -2.10614942       0.00000000
Si       0.94150661      -2.35945989       2.57089691       0.00000000
Si      -0.27624486      -3.58521723       1.02478827       0.00000000
Si      -0.85234071       3.13893639      -1.84631161       0.00000000
Si       2.02739638       1.17670815       2.97598759       0.00000000
Si      -2.05732830       0.26393058       3.28732695       0.00000000
