10
Lattice="16.28999089631971 0.0 0.0 0.0 16.28999089631971 0.0 0.0 0.0 34.26581377546328" Properties=species:S:1:pos:R:3:initial_magmoms:R:1 pbc="T T T"
Si      -1.21775148      -1.22575734      -1.54610865       0.00000000
Si      -0.80268323       2.17012122      -0.22618876       0.00000000
Si      -0.95959633      -1.39991373       1.66949991       0.00000000
Si       2.40432092       0.18226881      -0.02909169       0.00000000
Si       1.20769010      -2.07723564       2.17279647       0.00000000
Si       1.81263554      -3.05033508      -0.00445456       0.00000000
Si       2.66927777      -0.21774843       2.34786061       0.00000000
Si       0.14039211      -3.12018660      -1.76321696       0.00000000
Si      -0.94150661       2.35945989      -2.57089691       0.00000000
Si      -1.45369584       0.19023462      -3.38710905       0.00000000
