10
Lattice="16.28999089631971 0.0 0.0 0.0 16.28999089631971 0.0 0.0 0.0 34.26581377546328" Properties=species:S:1:pos:R:3:initial_magmoms:R:1 pbc="T T T"
Si      -0.28984797       2.27014182      -0.22707967       0.00000000
Si       0.11324808      -0.32229765      -2.38500477       0.00000000
Si       1.97829018      -0.39267045       1.49827354       0.00000000
Si       1.95556563      -1.73467323      -1.94753288       0.00000000
Si       0.58384989      -1.64750544       2.99721326       0.00000000
Si      -0.97635744      -3.32009748      -0.40289766       0.00000000
Si      -1.11436632      -2.79635769       1.87976367       0.00000000
Si       1.97729649       2.96965071      -0.32052260       0.00000000
Si      -1.34833959      -2.18178486      -2.56006891       0.00000000
Si      -1.28616066       2.84418513       1.89281998       0.00000000
