10
Lattice="16.28999089631971 0.0 0.0 0.0 16.28999089631971 0.0 0.0 0.0 34.26581377546328" Properties=species:S:1:pos:R:3:initial_magmoms:R:1 pbc="T T T"
Si      -1.35703761       1.35710361      -1.35702978       0.00000000
Si       1.35742929      -1.35725022      -1.35672139       0.00000000
Si      -1.35762405      -1.35705474       1.35833188       0.00000000
Si       1.35835619       1.35723393       1.35819482       0.00000000
Si      -2.71366881      -0.00084708      -2.71392250       0.00000000
Si      -0.00037483      -2.71342530      -2.71471061       0.00000000
Si       2.71520893      -0.00003258      -2.71320292       0.00000000
Si      -2.71466250      -2.71479366      -0.00006853       0.00000000
Si       2.71551844      -0.00355122       2.71419663       0.00000000
Si       2.71498087       2.71510317       0.00037692       0.00000000
