10
Lattice="16.28999089631971 0.0 0.0 0.0 16.28999089631971 0.0 0.0 0.0 34.26581377546328" Properties=species:S:1:pos:R:3:initial_magmoms:R:1 pbc="T T T"
Si      -1.35724045       1.35760860      -1.35730391       0.00000000
Si      -1.35662468      -1.35786924       1.35781790       0.00000000
Si       1.35770634      -1.35772263      -1.35699552       0.00000000
Si       1.35738054       1.35711990       1.35812629       0.00000000
Si       2.71332756      -0.00094482      -2.71484768       0.00000000
Si       0.00022806      -2.71513575      -2.71357984       0.00000000
Si       0.00112401       2.71479366      -2.71484768       0.00000000
Si      -2.71490002       2.71513575       0.00013706       0.00000000
Si      -2.71498087      -2.71510317      -0.00037692       0.00000000
Si       2.71518462       2.71513575       0.00023986       0.00000000
