10
Lattice="16.28999089631971 0.0 0.0 0.0 16.28999089631971 0.0 0.0 0.0 34.26581377546328" Properties=species:S:1:pos:R:3:initial_magmoms:R:1 pbc="T T T"
Si      -1.36879983       1.33296183       1.32094786       0.00000000
Si       1.37024964      -1.33058349       1.35473397       0.00000000
Si      -1.34508159      -1.37091753      -1.34633884       0.00000000
Si       1.37083608       1.34806266      -1.34418009       0.00000000
Si       0.03559365       2.55150270       2.70162107       0.00000000
Si      -2.70224384      -0.01013238      -2.70234065       0.00000000
Si       0.01176138       2.70485676      -2.70203226       0.00000000
Si      -2.68989928      -2.72745099       0.01867488       0.00000000
Si       0.01166364      -2.72455137      -2.70347142       0.00000000
Si       2.72816775      -0.01075140      -2.70326583       0.00000000
