10
Lattice="16.28999089631971 0.0 0.0 0.0 16.28999089631971 0.0 0.0 0.0 34.26581377546328" Properties=species:S:1:pos:R:3:initial_magmoms:R:1 pbc="T T T"
Si       1.80980434      -1.51852122       0.26200619       0.00000000
Si      -1.81927276      -0.64984068       1.40891994       0.00000000
Si       0.67023576       1.91664882       1.46580122       0.00000000
Si      -0.51930516      -0.69836859      -2.43260001       0.00000000
Si      -0.54304900      -1.94439069       2.90118669       0.00000000
Si       0.69728530      -3.32760717       1.44883278       0.00000000
Si       2.19768553       0.77327001       2.88459517       0.00000000
Si      -2.78784358      -2.44104021       0.16317390       0.00000000
Si      -1.54058344       1.12010040      -3.43415604       0.00000000
Si       2.80611703      -2.09256453      -1.85789346       0.00000000
