10
Lattice="16.28999089631971 0.0 0.0 0.0 16.28999089631971 0.0 0.0 0.0 34.26581377546328" Properties=species:S:1:pos:R:3:initial_magmoms:R:1 pbc="T T T"
Si       0.95215050       2.18568536      -0.13322556       0.00000000
Si      -1.16812006      -0.08760762       2.09007875       0.00000000
Si       1.72563228      -1.65543867       0.42102429       0.00000000
Si      -1.56100228      -0.95731443      -1.68101323       0.00000000
Si       2.51274879       1.94790348      -1.91175935       0.00000000
Si       2.17585530       2.43086615       1.87790471       0.00000000
Si       1.09038744      -2.73315249       2.41622094       0.00000000
Si      -2.68443629      -1.93880322       2.00417430       0.00000000
Si       0.27881964      -0.98950347       3.76831644       0.00000000
Si       3.50037891      -0.23089446      -1.91789293       0.00000000
