10
Lattice="16.28999089631971 0.0 0.0 0.0 16.28999089631971 0.0 0.0 0.0 34.24959146834617" Properties=species:S:1:pos:R:3:initial_magmoms:R:1 pbc="T T T"
Si       1.35508365       1.34984153      -1.36960768       0.00000000
Si      -1.35863487      -1.36364483      -1.37114891       0.00000000
Si       1.26255645      -1.29142901       1.54986338       0.00000000
Si      -1.28401038       1.40982131       1.44088112       0.00000000
Si      -2.11406733      -0.32805942       2.88720792       0.00000000
Si      -0.48578409      -2.24569446       2.82552438       0.00000000
Si       2.18914794       0.55668143       2.92416325       0.00000000
Si       2.70410742      -2.70756483       0.01935103       0.00000000
Si       2.72621295       2.70735239       0.00770616       0.00000000
Si      -2.69728191      -2.73768504      -0.00044524       0.00000000
