10
Lattice="16.28999089631971 0.0 0.0 0.0 16.28999089631971 0.0 0.0 0.0 34.24959146834617" Properties=species:S:1:pos:R:3:initial_magmoms:R:1 pbc="T T T"
Si       0.50373567      -2.02394128      -1.02337836       0.00000000
Si      -2.04669189      -0.50119443       1.08208220       0.00000000
Si      -1.14927579       1.40669037      -1.57250237       0.00000000
Si       2.01637620       0.56006649       1.39786361       0.00000000
Si       0.13181868       3.21062868      -0.77106148       0.00000000
Si       0.21773214       3.34573794       1.64545404       0.00000000
Si       1.05746535      -3.55384988       0.66057224       0.00000000
Si       1.03461048       1.69684785       3.22600507       0.00000000
Si      -2.39928894       1.18374543       2.70226003       0.00000000
Si      -1.93608279      -2.47204171       2.29236069       0.00000000
