10
Lattice="16.28999089631971 0.0 0.0 0.0 16.28999089631971 0.0 0.0 0.0 34.24959146834617" Properties=species:S:1:pos:R:3:initial_magmoms:R:1 pbc="T T T"
Si      -0.50373567       2.02394128       1.02337836       0.00000000
Si       1.97617248      -0.06178797      -1.25243976       0.00000000
Si       0.55372968      -1.52990860       1.68395060       0.00000000
Si      -1.81576485      -1.06080547      -1.12468871       0.00000000
Si      -0.70315785      -1.11171172      -3.24669184       0.00000000
Si      -1.48080987      -2.35784785       2.33513845       0.00000000
Si       1.42408809      -1.99857190      -2.68311450       0.00000000
Si      -2.55042756       1.52274685       2.10546056       0.00000000
Si       3.72402432       0.12764030       0.43164784       0.00000000
Si      -2.21975685      -3.01938475       0.18874960       0.00000000
