10
Lattice="16.28999089631971 0.0 0.0 0.0 16.28999089631971 0.0 0.0 0.0 34.24959146834617" Properties=species:S:1:pos:R:3:initial_magmoms:R:1 pbc="T T T"
Si       0.43450317       2.07177849      -0.92323250       0.00000000
Si      -2.13762267       0.41977701       0.83483426       0.00000000
Si       1.17755523      -0.58671693       1.95318679       0.00000000
Si       0.60364224      -1.07647578      -2.03093341       0.00000000
Si      -3.41871714      -1.38416130       0.03339337       0.00000000
Si       2.81212641       2.25896688      -0.95344066       0.00000000
Si      -0.25306515      -2.23078518       3.00375935       0.00000000
Si      -0.34508736       1.90182492      -3.26148767       0.00000000
Si       2.97022086      -0.73378305      -2.26355677       0.00000000
Si       3.40301358      -1.23831693       1.30908862       0.00000000
