10
Lattice="16.28999089631971 0.0 0.0 0.0 16.28999089631971 0.0 0.0 0.0 34.24959146834617" Properties=species:S:1:pos:R:3:initial_magmoms:R:1 pbc="T T T"
Si      -0.43450317      -2.07177849       0.92323250       0.00000000
Si      -0.16219953       2.12242410       1.03598222       0.00000000
Si       2.37762324       0.18718839      -0.03020816       0.00000000
Si      -0.77959053      -0.16995357      -2.33825517       0.00000000
Si       2.06075016       1.75005099       1.67901866       0.00000000
Si       0.72793494       1.76826321      -2.66794192       0.00000000
Si       0.16913907      -3.14825427      -1.10770091       0.00000000
Si      -2.57212584      -1.65200148       1.75806676       0.00000000
Si      -0.11487708       3.66860574      -1.02139189       0.00000000
Si       3.50236629      -1.77248232       0.53083471       0.00000000
