10
Lattice="16.28999089631971 0.0 0.0 0.0 16.28999089631971 0.0 0.0 0.0 34.24959146834617" Properties=species:S:1:pos:R:3:initial_magmoms:R:1 pbc="T T T"
Si      -2.17750059       0.85985136      -0.57022177       0.00000000
Si      -0.49989123      -2.31627510      -0.63854974       0.00000000
Si       0.77959053       0.16995357       2.33825517       0.00000000
Si       1.50752547       1.93821678      -0.32968675       0.00000000
Si       0.81199134      -0.86762169      -2.18012471       0.00000000
Si       0.94872960      -2.97830070       1.23055426       0.00000000
Si       0.48145095       2.11784661      -2.68520372       0.00000000
Si      -3.51339462      -0.25202259       1.04618861       0.00000000
Si      -2.90136303      -2.29312701      -0.18833861       0.00000000
Si       0.34508736      -1.90182492       3.26148767       0.00000000
