10
Lattice="16.28999089631971 0.0 0.0 0.0 16.28999089631971 0.0 0.0 0.0 34.24959146834617" Properties=species:S:1:pos:R:3:initial_magmoms:R:1 pbc="T T T"
Si      -2.24132481       0.15236037       0.52949898       0.00000000
Si       1.25066475       1.97317512       0.26389325       0.00000000
Si      -0.08591346      -0.13510926      -2.41651553       0.00000000
Si       0.81687834      -1.64889009       1.58055103       0.00000000
Si       1.79864406      -2.78567145      -0.24759044       0.00000000
Si       3.34940319       0.77441031       0.19587352       0.00000000
Si      -2.98796067       1.17196776      -1.46232137       0.00000000
Si      -2.61702108      -2.16199251       1.05680598       0.00000000
Si       3.22926444      -1.14160320      -1.29816299       0.00000000
Si      -0.21773214      -3.34573794      -1.64545404       0.00000000
