10
Lattice="16.28999089631971 0.0 0.0 0.0 16.28999089631971 0.0 0.0 0.0 34.24959146834617" Properties=species:S:1:pos:R:3:initial_magmoms:R:1 pbc="T T T"
Si       2.22294969      -0.37237311       0.64303644       0.00000000
Si      -1.41806079       0.20266389       1.87598817       0.00000000
Si       0.16219953      -2.12242410      -1.03598222       0.00000000
Si       0.04732245       1.54618164      -2.05737411       0.00000000
Si       2.53982277      -1.93523571      -1.06619038       0.00000000
Si      -3.40263891       0.44773065       0.63241906       0.00000000
Si      -1.12531320       3.35619612      -0.94826897       0.00000000
Si       0.89013447      -0.35416089      -3.70392414       0.00000000
Si      -1.02859947       2.31638913       2.87772078       0.00000000
Si       3.59323191       1.40090742       0.17265229       0.00000000
