10
Lattice="16.28999089631971 0.0 0.0 0.0 16.28999089631971 0.0 0.0 0.0 34.24959146834617" Properties=species:S:1:pos:R:3:initial_magmoms:R:1 pbc="T T T"
Si      -1.35811359       1.35505107       1.35662708       0.00000000
Si       1.35576783      -1.35837423       1.35775731       0.00000000
Si       1.34581464       1.34353404      -1.38307120       0.00000000
Si      -1.36721970      -1.34143263      -1.37040912       0.00000000
Si       0.03362256      -2.68739388      -2.69837612       0.00000000
Si       2.71423980       2.71296918      -0.00791166       0.00000000
Si       2.71375110      -0.00117288       2.71417889       0.00000000
Si      -0.00092853       2.71404432       2.71435014       0.00000000
Si      -2.71615550       2.71453302      -0.00438395       0.00000000
Si      -2.71614084      -0.00102627       2.71458989       0.00000000
