10
Lattice="16.28999089631971 0.0 0.0 0.0 16.28999089631971 0.0 0.0 0.0 34.24959146834617" Properties=species:S:1:pos:R:3:initial_magmoms:R:1 pbc="T T T"
Si      -2.04685479       1.09611730      -0.34369484       0.00000000
Si       1.15307136      -0.19264554      -2.05775085       0.00000000
Si       1.12801734       1.45150646       1.63093221       0.00000000
Si      -0.82987776      -2.29662936       0.35530546       0.00000000
Si      -3.35323134       0.05357781       1.29795749       0.00000000
Si       3.29900193      -1.43744589       0.67735455       0.00000000
Si       3.38879241       0.89347622       1.13876530       0.00000000
Si      -2.34549936      -1.88656119       2.13912793       0.00000000
Si       2.75825538      -1.87771572      -1.59394263       0.00000000
Si      -0.24615819      -0.58896495      -3.89568771       0.00000000
