10
Lattice="16.28999089631971 0.0 0.0 0.0 16.28999089631971 0.0 0.0 0.0 34.24959146834617" Properties=species:S:1:pos:R:3:initial_magmoms:R:1 pbc="T T T"
Si       1.47686769      -1.30372291       1.28936084       0.00000000
Si      -1.35193968      -1.36728839      -1.38173204       0.00000000
Si       1.36479249       1.35181913      -1.38495150       0.00000000
Si      -1.33936380       1.41740267       1.63860412       0.00000000
Si      -2.68959303       2.69914874      -0.00808291       0.00000000
Si       2.70197343       2.71941350      -0.01078863       0.00000000
Si      -2.71169856      -2.71576847       0.00356196       0.00000000
Si       0.00974142       2.70397058      -2.74538029       0.00000000
Si      -2.70448209      -0.01014704      -2.74568853       0.00000000
Si       2.72662020      -0.01115865      -2.74414730       0.00000000
