10
Lattice="16.28999089631971 0.0 0.0 0.0 16.28999089631971 0.0 0.0 0.0 34.24959146834617" Properties=species:S:1:pos:R:3:initial_magmoms:R:1 pbc="T T T"
Si       1.91490579       0.29665719      -1.37532736       0.00000000
Si      -1.89244188      -0.30957516      -1.41142645       0.00000000
Si       0.07752411      -2.03714595       1.29525177       0.00000000
Si       0.05875803       1.94517261       1.52345693       0.00000000
Si      -0.67867398      -0.90767880       3.39256093       0.00000000
Si       1.96921665      -2.96997488      -0.33585168       0.00000000
Si      -1.67417217      -2.70414489      -1.86540504       0.00000000
Si      -1.76080239       1.42918686       2.96683827       0.00000000
Si       3.53942604      -1.14438879      -0.40102869       0.00000000
Si      -1.83715362       1.45859031      -3.03057679       0.00000000
