10
Lattice="16.28999089631971 0.0 0.0 0.0 16.28999089631971 0.0 0.0 0.0 34.24959146834617" Properties=species:S:1:pos:R:3:initial_magmoms:R:1 pbc="T T T"
Si       1.33880994       1.34052039       1.38326642       0.00000000
Si      -1.37873673      -1.37399634       1.37610825       0.00000000
Si      -1.17664299       1.56388887      -1.44913870       0.00000000
Si       1.50811191      -1.21798701      -1.50410590       0.00000000
Si      -1.21679784      -0.07108956      -3.21393692       0.00000000
Si      -0.13466943      -2.40795522      -2.78821426       0.00000000
Si       2.67397092       2.69926929       0.01894003       0.00000000
Si      -2.72662020       2.68258833       0.01189146       0.00000000
Si       2.69749368      -0.01427004       2.73893451       0.00000000
Si      -0.01560582       2.69775432       2.73893451       0.00000000
