10
Lattice="16.28999089631971 0.0 0.0 0.0 16.28999089631971 0.0 0.0 0.0 34.24959146834617" Properties=species:S:1:pos:R:3:initial_magmoms:R:1 pbc="T T T"
Si      -1.35868374       1.35479043      -1.35566809       0.00000000
Si       1.35746199       1.35467640       1.35744907       0.00000000
Si      -1.35775521      -1.35971001       1.35720932       0.00000000
Si       1.35923760      -1.36423863      -1.36217551       0.00000000
Si      -2.71309950       2.71202436       0.00000000       0.00000000
Si       0.00013032       2.71210581       2.71452139       0.00000000
Si       2.71552671       2.71142163      -0.00085624       0.00000000
Si      -2.71456560      -0.00296478       2.71465839       0.00000000
Si       2.71480995      -0.00270414       2.71469264       0.00000000
Si      -2.71288773      -2.71761183      -0.00030825       0.00000000
