10
Lattice="16.28999089631971 0.0 0.0 0.0 16.28999089631971 0.0 0.0 0.0 34.24959146834617" Properties=species:S:1:pos:R:3:initial_magmoms:R:1 pbc="T T T"
Si       1.12359461      -1.22632653      -1.62072582       0.00000000
Si      -0.35604564       2.28640738      -0.23056838       0.00000000
Si      -2.29682388      -0.49930153      -0.67115537       0.00000000
Si       1.79734900       0.88093877       1.76443719       0.00000000
Si      -1.05138918      -1.47914733      -2.51200344       0.00000000
Si       1.74886996       3.08407981      -1.05660049       0.00000000
Si      -1.97069808       2.63926507      -1.84691025       0.00000000
Si       2.13132659      -3.16646553      -0.77955539       0.00000000
Si      -1.60479210       3.21728314       1.66912052       0.00000000
Si       2.42997115      -0.18378704      -3.26237816       0.00000000
