10
Lattice="16.28999089631971 0.0 0.0 0.0 16.28999089631971 0.0 0.0 0.0 34.24959146834617" Properties=species:S:1:pos:R:3:initial_magmoms:R:1 pbc="T T T"
Si      -2.30071815      -0.15675867       0.53997936       0.00000000
Si       1.29007026       1.37137365      -1.50951734       0.00000000
Si       1.43878167      -0.82797183       1.85249294       0.00000000
Si      -1.48379094      -1.30152213      -1.51629876       0.00000000
Si       0.69700023       2.31775749       1.27090030       0.00000000
Si       2.55032982      -2.56675014       0.40483040       0.00000000
Si       1.49159385       1.21264389       3.16288304       0.00000000
Si      -2.54524734      -2.86712145       0.02743394       0.00000000
Si       3.06108648       2.35046781      -0.06980071       0.00000000
Si      -2.63125854       2.82870963       0.03490035       0.00000000
