10
Lattice="16.28999089631971 0.0 0.0 0.0 16.28999089631971 0.0 0.0 0.0 34.24959146834617" Properties=species:S:1:pos:R:3:initial_magmoms:R:1 pbc="T T T"
Si      -1.12474305       1.95967071      -0.56104287       0.00000000
Si      -0.96664860      -1.03307922      -1.87115898       0.00000000
Si       2.28279915      -0.15221376      -0.54398657       0.00000000
Si      -0.53385588      -1.53761310       1.70148641       0.00000000
Si       0.32234652       2.10430962      -2.42631091       0.00000000
Si       1.15543341      -0.77147811       3.18247382       0.00000000
Si      -0.05546745      -3.15970614      -1.85780163       0.00000000
Si      -0.10129122      -3.67476336       0.55943314       0.00000000
Si       2.56251474       0.98236845      -2.51940136       0.00000000
Si      -2.75931423      -0.88601310       2.34558458       0.00000000
