10
Lattice="16.28999089631971 0.0 0.0 0.0 16.28999089631971 0.0 0.0 0.0 34.24959146834617" Properties=species:S:1:pos:R:3:initial_magmoms:R:1 pbc="T T T"
Si       1.12474305      -1.95967071       0.56104287       0.00000000
Si      -0.31687308       1.56286260       1.70922682       0.00000000
Si       1.44708957       0.14463891      -1.86526804       0.00000000
Si      -2.37762324      -0.18718839       0.03020816       0.00000000
Si       0.15809445      -2.99274993      -1.31011611       0.00000000
Si      -2.53982277       1.93523571       1.06619038       0.00000000
Si      -1.64968830       1.58107482      -2.63773376       0.00000000
Si       1.05340914       3.33614313       1.23884267       0.00000000
Si      -2.81212641      -2.25896688       0.95344066       0.00000000
Si       0.06986781       0.71040690       3.83917585       0.00000000
