10
Lattice="16.28999089631971 0.0 0.0 0.0 16.28999089631971 0.0 0.0 0.0 34.24959146834617" Properties=species:S:1:pos:R:3:initial_magmoms:R:1 pbc="T T T"
Si       1.35786924       1.35669636       1.35700382       0.00000000
Si      -1.35757602      -1.35891180       1.35676407       0.00000000
Si      -1.35874890       1.35637056      -1.36022329       0.00000000
Si       1.35576783      -1.35702216      -1.36262076       0.00000000
Si      -2.71471221       2.71290402       0.00030825       0.00000000
Si      -0.00004887       2.71393029       2.71417889       0.00000000
Si       2.71526607      -0.00133578       2.71424739       0.00000000
Si      -2.71314837      -2.71639008      -0.00020550       0.00000000
Si       2.71630863       2.71329498       0.00102749       0.00000000
Si      -2.71529865      -0.00091224       2.71441864       0.00000000
