10
Lattice="16.28999089631971 0.0 0.0 0.0 16.28999089631971 0.0 0.0 0.0 34.24959146834617" Properties=species:S:1:pos:R:3:initial_magmoms:R:1 pbc="T T T"
Si      -1.35720135      -1.35871632      -1.35604483       0.00000000
Si       1.35746199      -1.35769005       1.35782581       0.00000000
Si      -1.35764118       1.35717146       1.35816831       0.00000000
Si       1.35830907       1.35931636      -1.35631883       0.00000000
Si      -2.71422351       0.00151497       2.71479538       0.00000000
Si      -0.00154755       2.71296822      -2.71681611       0.00000000
Si       2.71542897       2.71446039       0.00027400       0.00000000
Si      -2.71507059       2.71490510       0.00071924       0.00000000
Si       2.71538010      -2.71492398       0.00065074       0.00000000
Si       0.00024435       2.71607961       2.71441864       0.00000000
