10
Lattice="16.28999089631971 0.0 0.0 0.0 16.28999089631971 0.0 0.0 0.0 34.24959146834617" Properties=species:S:1:pos:R:3:initial_magmoms:R:1 pbc="T T T"
Si       1.35791811      -1.35723393      -1.35717507       0.00000000
Si       1.35764118       1.35726651       1.35772306       0.00000000
Si      -1.35746199       1.35769005      -1.35782581       0.00000000
Si      -1.35734796      -1.35913986       1.35833956       0.00000000
Si       0.00004887      -2.71393029      -2.71417889       0.00000000
Si      -2.71466334      -0.00102627      -2.71387065       0.00000000
Si       0.00184077      -2.71495656       2.71441864       0.00000000
Si       2.71635750      -0.00063531      -2.71315140       0.00000000
Si      -2.71510317       2.71486151       0.00034250       0.00000000
Si      -2.71524978      -2.71484253       0.00023975       0.00000000
