10
Lattice="16.28999089631971 0.0 0.0 0.0 16.28999089631971 0.0 0.0 0.0 34.24959146834617" Properties=species:S:1:pos:R:3:initial_magmoms:R:1 pbc="T T T"
Si       1.35975888       1.34848008      -1.38529400       0.00000000
Si      -1.35350352      -1.36581876      -1.38536250       0.00000000
Si       1.36386396      -1.37943720       1.39097944       0.00000000
Si      -1.44155097       1.41613582       1.53051235       0.00000000
Si      -2.70410742       2.70756483      -0.01935103       0.00000000
Si       2.71169856       2.71576847      -0.00356196       0.00000000
Si      -2.70207117      -2.72561022      -0.00948714       0.00000000
Si       2.71272483      -2.74214457      -0.01976203       0.00000000
Si       0.00721647       2.70562143      -2.74925049       0.00000000
Si      -2.70725139      -0.00894321      -2.74887375       0.00000000
