10
Lattice="16.28999089631971 0.0 0.0 0.0 16.28999089631971 0.0 0.0 0.0 34.24959146834617" Properties=species:S:1:pos:R:3:initial_magmoms:R:1 pbc="T T T"
Si      -1.60518402       1.68507018      -0.46380823       0.00000000
Si       0.54074655       0.44026983       2.27129718       0.00000000
Si      -0.69985098      -2.30280327      -0.17388527       0.00000000
Si       1.70880471       0.10969686      -1.74210644       0.00000000
Si       2.55370185      -0.78113808       2.22495745       0.00000000
Si       0.28494468       0.57544425      -3.52339444       0.00000000
Si      -2.54873340      -2.14594686      -1.57774256       0.00000000
Si      -2.75825538       1.87771572       1.59394263       0.00000000
Si       1.24812351      -3.48373053      -0.71153566       0.00000000
Si      -1.87800894      -0.51880392      -3.24912356       0.00000000
