10
Lattice="16.28999089631971 0.0 0.0 0.0 16.28999089631971 0.0 0.0 0.0 34.24959146834617" Properties=species:S:1:pos:R:3:initial_magmoms:R:1 pbc="T T T"
Si      -1.35620440      -1.35729909       1.35659283       0.00000000
Si      -1.35631517       1.35672894      -1.35727782       0.00000000
Si       1.35796698       1.35694071       1.35775731       0.00000000
Si       1.35870003      -1.35834165      -1.35803131       0.00000000
Si      -2.71405180       2.71443528       0.00006850       0.00000000
Si       0.00156384      -2.71498914      -2.71380215       0.00000000
Si      -2.71401998      -2.71549413      -0.00003425       0.00000000
Si       0.00206883       2.71507059      -2.71458989       0.00000000
Si       2.71586880       0.00169416      -2.71400764       0.00000000
Si      -2.71362091       0.00141723       2.71633662       0.00000000
