10
Lattice="16.28999089631971 0.0 0.0 0.0 16.28999089631971 0.0 0.0 0.0 34.24959146834617" Properties=species:S:1:pos:R:3:initial_magmoms:R:1 pbc="T T T"
Si       1.35609363       1.35677781       1.35666133       0.00000000
Si       1.35635427      -1.35654486      -1.35700382       0.00000000
Si      -1.35889551      -1.35807938       1.35618183       0.00000000
Si      -1.35762489       1.35317772      -1.36282626       0.00000000
Si       2.71185328      -2.71494874      -0.00017125       0.00000000
Si       2.71303434       2.71415835      -0.00184948       0.00000000
Si       2.71357086      -0.00034209       2.71380215       0.00000000
Si      -0.00205254       2.71471221       2.71404189       0.00000000
Si      -2.71601541      -2.71322340      -0.00041100       0.00000000
Si      -0.00140094      -2.71550994       2.71387065       0.00000000
