10
Lattice="16.28999089631971 0.0 0.0 0.0 16.28999089631971 0.0 0.0 0.0 34.24959146834617" Properties=species:S:1:pos:R:3:initial_magmoms:R:1 pbc="T T T"
Si      -1.33825608      -1.35566565       1.34518771       0.00000000
Si       1.35330382      -1.35204927      -1.35806556       0.00000000
Si      -1.35886293       1.36257891      -1.35649008       0.00000000
Si       1.36072392       1.37013584       1.38149229       0.00000000
Si      -2.60861544       0.07001465       2.67701806       0.00000000
Si       2.71323701      -2.70853386       0.00383596       0.00000000
Si      -0.00229426      -2.71022802      -2.71458989       0.00000000
Si      -2.71720458      -2.70986964       0.00383596       0.00000000
Si       2.71276460       0.00420419      -2.71462414       0.00000000
Si       2.70919709       2.72055566       0.00356196       0.00000000
