10
Lattice="16.28999089631971 0.0 0.0 0.0 16.28999089631971 0.0 0.0 0.0 34.24959146834617" Properties=species:S:1:pos:R:3:initial_magmoms:R:1 pbc="T T T"
Si       1.35654870       1.35712967      -1.35806556       0.00000000
Si      -1.35842310      -1.35803818      -1.35799706       0.00000000
Si       1.35886293      -1.36257891       1.35649008       0.00000000
Si      -1.36182771       1.36297778       1.35919580       0.00000000
Si       0.02060685      -2.71824455       2.70167778       0.00000000
Si       2.71216675      -2.71462817      -0.00157548       0.00000000
Si       2.71356606      -0.00033720      -2.71541188       0.00000000
Si      -0.00092853       2.71424957      -2.71520638       0.00000000
Si       2.71436427       2.71532471      -0.00143848       0.00000000
Si      -0.00151497      -2.71529606      -2.71510363       0.00000000
