10
Lattice="16.28999089631971 0.0 0.0 0.0 16.28999089631971 0.0 0.0 0.0 34.24959146834617" Properties=species:S:1:pos:R:3:initial_magmoms:R:1 pbc="T T T"
Si       2.25460116       0.54915219      -0.42085922       0.00000000
Si      -0.65761101       2.26558062       0.11261272       0.00000000
Si      -0.90611496      -0.56314530      -2.28372979       0.00000000
Si      -0.92530458      -2.27785676       1.82827846       0.00000000
Si       0.27577341       1.18240965       2.81336576       0.00000000
Si       0.88071885      -1.09371060       2.87210385       0.00000000
Si      -2.99587761      -0.74191176      -1.20120234       0.00000000
Si      -3.04170138      -1.25696898       1.21603242       0.00000000
Si       2.03478390       2.57096925      -1.59774433       0.00000000
Si      -0.17197353      -3.67231076       0.02897517       0.00000000
