10
Lattice="16.28999089631971 0.0 0.0 0.0 16.28999089631971 0.0 0.0 0.0 34.24959146834617" Properties=species:S:1:pos:R:3:initial_magmoms:R:1 pbc="T T T"
Si      -1.35746199      -1.35467640      -1.35744907       0.00000000
Si      -1.35733167       1.35742941       1.35707232       0.00000000
Si       1.35734796      -1.35738054       1.35724357       0.00000000
Si       1.35806472       1.35674523      -1.35830531       0.00000000
Si      -2.71347417      -0.00019548       2.71445289       0.00000000
Si      -0.00045612      -2.71443528       2.71383640       0.00000000
Si      -2.71614573       0.00011403      -2.71311715       0.00000000
Si       2.71551042      -0.00066789       2.71400764       0.00000000
Si      -2.71521720      -2.71438641      -0.00023975       0.00000000
Si      -2.71498914       2.71482624      -0.00047949       0.00000000
