10
Lattice="16.28999089631971 0.0 0.0 0.0 16.28999089631971 0.0 0.0 0.0 34.24959146834617" Properties=species:S:1:pos:R:3:initial_magmoms:R:1 pbc="T T T"
Si       1.35863337       1.33416729       1.36683346       0.00000000
Si      -1.35786001       1.35485559      -1.35936705       0.00000000
Si       1.35741650      -1.35871632      -1.35974379       0.00000000
Si      -1.38159454      -1.34346888       1.37505337       0.00000000
Si      -0.02023924       2.72642472       2.64516593       0.00000000
Si      -2.71527313       2.71072116       0.00267147       0.00000000
Si       2.71111225      -2.71606428       0.00174673       0.00000000
Si       2.71549426       2.71336014       0.00037675       0.00000000
Si      -0.00043090       2.71301805      -2.71626812       0.00000000
Si      -2.71877548      -2.71106325       0.00089049       0.00000000
