10
Lattice="16.28999089631971 0.0 0.0 0.0 16.28999089631971 0.0 0.0 0.0 34.24959146834617" Properties=species:S:1:pos:R:3:initial_magmoms:R:1 pbc="T T T"
Si      -1.35690813       1.35671265       1.35707232       0.00000000
Si       1.35741437       1.35822762      -1.35703807       0.00000000
Si       1.35817845      -1.35819504       1.35717507       0.00000000
Si      -1.35669636      -1.35894438      -1.35823681       0.00000000
Si      -0.00091224       2.71521720      -2.71246641       0.00000000
Si       0.00114030       2.71401174       2.71452139       0.00000000
Si      -2.71430496       2.71474479      -0.00017125       0.00000000
Si       2.71471288      -0.00052128       2.71472689       0.00000000
Si       2.71519669       2.71445157      -0.00003425       0.00000000
Si       0.00074934      -2.71635750       2.71407614       0.00000000
