10
Lattice="16.28999089631971 0.0 0.0 0.0 16.28999089631971 0.0 0.0 0.0 34.24959146834617" Properties=species:S:1:pos:R:3:initial_magmoms:R:1 pbc="T T T"
Si      -1.35423657       1.35705474       1.35679832       0.00000000
Si      -1.35594702      -1.35822762      -1.35748332       0.00000000
Si       1.35923760       1.35674523      -1.35755182       0.00000000
Si       1.35948195      -1.36045935       1.36149052       0.00000000
Si      -2.69845479      -0.00807984       2.72705675       0.00000000
Si      -2.71342530       2.71287144       0.00071924       0.00000000
Si      -0.00778662       2.69801496       2.72846098       0.00000000
Si      -2.71208952      -2.71585251      -0.00010275       0.00000000
Si      -2.71360449      -0.00083079      -2.71503513       0.00000000
Si       0.00184077       2.71477737      -2.71479538       0.00000000
