10
Lattice="16.28999089631971 0.0 0.0 0.0 16.28999089631971 0.0 0.0 0.0 34.24959146834617" Properties=species:S:1:pos:R:3:initial_magmoms:R:1 pbc="T T T"
Si       1.35741312      -1.35586557      -1.36203851       0.00000000
Si      -1.35948195       1.36045935      -1.36149052       0.00000000
Si      -1.35130437      -1.37666790       1.35950404       0.00000000
Si       1.35229806       1.38991167       1.35751757       0.00000000
Si       2.69503389       0.01570356       2.64249446       0.00000000
Si      -2.64772773      -0.03345966       2.74678452       0.00000000
Si       2.71527313      -2.71072116      -0.00267147       0.00000000
Si      -2.71518462      -2.71235016      -0.00441820       0.00000000
Si      -2.71371852       2.71751409      -0.00469220       0.00000000
Si      -0.00074934      -2.71257822      -2.71880259       0.00000000
