10
Lattice="16.28999089631971 0.0 0.0 0.0 16.28999089631971 0.0 0.0 0.0 34.24959146834617" Properties=species:S:1:pos:R:3:initial_magmoms:R:1 pbc="T T T"
Si      -1.34273583       1.37420811      -1.28497689       0.00000000
Si       1.37887261      -1.39225743      -1.27833247       0.00000000
Si       1.71953072       0.82564236       1.37923182       0.00000000
Si      -1.65387483      -0.92595618       1.41180320       0.00000000
Si       0.08012727      -1.91528046       2.71719286       0.00000000
Si       0.27573336       0.70954353       3.25378151       0.00000000
Si       2.63667401       2.60289765       0.13186100       0.00000000
Si      -2.69503389      -0.01570356      -2.64249446       0.00000000
Si       0.01795158       2.70319518      -2.64776890       0.00000000
Si       0.02023924      -2.72642472      -2.64516593       0.00000000
