10
Lattice="16.28999089631971 0.0 0.0 0.0 16.28999089631971 0.0 0.0 0.0 34.24959146834617" Properties=species:S:1:pos:R:3:initial_magmoms:R:1 pbc="T T T"
Si       1.44788193       0.58870431       1.75604604       0.00000000
Si      -0.30444381       2.29260573      -0.54532230       0.00000000
Si       1.40554260      -1.67174496      -0.99282771       0.00000000
Si      -1.78429257      -1.31214321       0.92902069       0.00000000
Si       1.02361473      -1.46588823       2.88782442       0.00000000
Si       1.95667239      -2.65023639       1.09331607       0.00000000
Si      -2.63707407       2.70392823       0.13699844       0.00000000
Si      -0.72775575       2.37490281      -2.86316470       0.00000000
Si      -2.33684937      -0.38397159       3.07667677       0.00000000
Si      -2.44193616      -1.45135755      -2.70260252       0.00000000
