10
Lattice="16.28999089631971 0.0 0.0 0.0 16.28999089631971 0.0 0.0 0.0 34.24959146834617" Properties=species:S:1:pos:R:3:initial_magmoms:R:1 pbc="T T T"
Si       1.21409370      -0.67834818      -1.90777181       0.00000000
Si      -1.69992666       1.59979203      -0.42418143       0.00000000
Si      -1.41095835      -1.69393194       0.97875112       0.00000000
Si       1.57371174       1.73928330       1.33395383       0.00000000
Si       0.84295863       3.67191261       0.03894181       0.00000000
Si      -3.73596489       0.67751739       0.18727687       0.00000000
Si       2.77829208       1.08385515      -2.35788019       0.00000000
Si       2.64508875      -2.45017890      -1.42605104       0.00000000
Si      -3.51442089      -1.70214210      -0.12292185       0.00000000
Si      -2.01313449       1.90648386      -2.75634016       0.00000000
