10
Lattice="16.28999089631971 0.0 0.0 0.0 16.28999089631971 0.0 0.0 0.0 34.24959146834617" Properties=species:S:1:pos:R:3:initial_magmoms:R:1 pbc="T T T"
Si       1.00475091       1.73618398      -1.15119791       0.00000000
Si      -0.64482336       0.66430620       2.14012117       0.00000000
Si      -1.81995138      -1.05529878      -1.04601736       0.00000000
Si       1.73364696      -1.70458560       0.20220970       0.00000000
Si       2.27511027       0.31050369      -2.48302827       0.00000000
Si      -0.47109051      -2.41800615      -2.45675882       0.00000000
Si      -0.17567136      -1.37556018       3.20237284       0.00000000
Si       2.10398382       2.91638471       0.55641917       0.00000000
Si       2.15695890      -1.78688268       2.52005210       0.00000000
Si       0.83676843       2.28895744       2.95358367       0.00000000
