10
Lattice="16.28999089631971 0.0 0.0 0.0 16.28999089631971 0.0 0.0 0.0 34.24959146834617" Properties=species:S:1:pos:R:3:initial_magmoms:R:1 pbc="T T T"
Si       0.42331194      -0.08229708       2.31784240       0.00000000
Si       1.87209567       0.67828302      -1.27487326       0.00000000
Si      -1.73364696       1.70458560      -0.20220970       0.00000000
Si      -0.86016087      -2.05213275      -1.18876973       0.00000000
Si       0.54146331       2.01508929      -2.68523797       0.00000000
Si      -2.20473747      -0.71342055      -2.65896852       0.00000000
Si      -1.90931832       0.32902542       3.00016314       0.00000000
Si      -0.72889605       3.44076958      -1.35340761       0.00000000
Si       0.72775575      -2.37490281       2.86316470       0.00000000
Si      -3.55359834       0.64928682      -1.24822706       0.00000000
