10
Lattice="16.28999089631971 0.0 0.0 0.0 16.28999089631971 0.0 0.0 0.0 34.24959146834617" Properties=species:S:1:pos:R:3:initial_magmoms:R:1 pbc="T T T"
Si      -0.73075311       1.93262931      -1.29501203       0.00000000
Si      -1.34335485       0.61677198       2.07323168       0.00000000
Si       2.54482447      -0.38967309      -0.00462370       0.00000000
Si      -1.57371174      -1.73928330      -1.33395383       0.00000000
Si       1.59722507      -2.25800577       1.93897321       0.00000000
Si      -3.27363840      -0.13949127      -1.75813526       0.00000000
Si      -3.06577800       2.11364379      -0.62471290       0.00000000
Si      -0.03894939       1.36888128      -3.60151780       0.00000000
Si       1.20458034      -0.65542815      -3.69183403       0.00000000
Si       0.14416650       1.64380761       3.60805061       0.00000000
