10
Lattice="16.28999089631971 0.0 0.0 0.0 16.28999089631971 0.0 0.0 0.0 34.24959146834617" Properties=species:S:1:pos:R:3:initial_magmoms:R:1 pbc="T T T"
Si      -0.11321550      -2.30045751       0.43938825       0.00000000
Si      -0.87456123       0.86187132       2.00432146       0.00000000
Si      -0.98803737       1.07634546      -1.84221806       0.00000000
Si       2.24828064       0.80356941      -0.26529748       0.00000000
Si       0.52507557      -3.18560724      -1.68912230       0.00000000
Si       0.07434756       3.23825652      -1.80481748       0.00000000
Si      -3.25173666       1.22253192      -1.32063074       0.00000000
Si       1.53842760      -2.66900247       2.08528754       0.00000000
Si      -1.61328015       2.99283138       1.53143709       0.00000000
Si       2.67701715       1.99565532       1.76221097       0.00000000
