10
Lattice="16.28999089631971 0.0 0.0 0.0 16.28999089631971 0.0 0.0 0.0 34.24959146834617" Properties=species:S:1:pos:R:3:initial_magmoms:R:1 pbc="T T T"
Si       0.70692573       1.98215091       1.31373085       0.00000000
Si      -1.95703077      -0.70556877       1.36518404       0.00000000
Si       1.68571363      -1.88569782      -0.08024684       0.00000000
Si      -0.87379464      -0.51974874      -2.32911052       0.00000000
Si      -0.29869344       1.70606799      -2.41182333       0.00000000
Si       2.02759186       0.62726274       2.76137626       0.00000000
Si      -0.69380737      -2.10326706       2.77353830       0.00000000
Si       3.28817723      -0.71895915       1.21689007       0.00000000
Si       0.68396497      -3.51754694       1.37394851       0.00000000
Si      -3.03925692      -2.34512469      -0.03572234       0.00000000
