10
Lattice="16.28999089631971 0.0 0.0 0.0 16.28999089631971 0.0 0.0 0.0 34.24959146834617" Properties=species:S:1:pos:R:3:initial_magmoms:R:1 pbc="T T T"
Si       1.35653443       1.35767376       1.35755182       0.00000000
Si      -1.35742911      -1.35816246       1.35690107       0.00000000
Si       1.35773663      -1.35770634      -1.35734632       0.00000000
Si      -1.35817845       1.35819504      -1.35717507       0.00000000
Si       2.71405180      -2.71443528      -0.00006850       0.00000000
Si       0.00043090      -2.71301805       2.71626812       0.00000000
Si       2.71465453       2.71505430       0.00017125       0.00000000
Si      -2.71508658       2.71490769      -0.00010275       0.00000000
Si      -0.00185676       2.71660185       2.71366515       0.00000000
Si      -2.71487481      -0.00074934      -2.71541188       0.00000000
