10
Lattice="16.28999089631971 0.0 0.0 0.0 16.28999089631971 0.0 0.0 0.0 34.24959146834617" Properties=species:S:1:pos:R:3:initial_magmoms:R:1 pbc="T T T"
Si       1.44379736       0.11609883      -1.87454969       0.00000000
Si       0.55112980      -0.97849143       2.08614378       0.00000000
Si      -1.40554260       1.67174496       0.99282771       0.00000000
Si      -0.19560608      -2.62482399      -0.53658865       0.00000000
Si      -1.92960819      -1.63549971      -1.84197831       0.00000000
Si      -0.27573336      -0.70954353      -3.25378151       0.00000000
Si      -0.76412385      -2.86857126       1.69487623       0.00000000
Si       0.04233934       2.26044927       2.74887375       0.00000000
Si      -3.18983517       0.35960175       1.92184840       0.00000000
Si       2.75532155      -1.67123997       2.12631858       0.00000000
