10
Lattice="16.28999089631971 0.0 0.0 0.0 16.28999089631971 0.0 0.0 0.0 34.24959146834617" Properties=species:S:1:pos:R:3:initial_magmoms:R:1 pbc="T T T"
Si       1.35559808       1.35817875       1.35652433       0.00000000
Si       1.35696644      -1.35747828      -1.35707232       0.00000000
Si      -1.35708995      -1.35791811       1.35748332       0.00000000
Si      -1.35808364       1.35751086      -1.35700382       0.00000000
Si       0.00229426       2.71022802       2.71458989       0.00000000
Si      -2.71409582      -0.00058644      -2.71318565       0.00000000
Si      -0.00190856      -2.71352304       2.71380215       0.00000000
Si      -0.00081588      -2.71370223      -2.71407614       0.00000000
Si      -0.00173754       2.71532995      -2.71393914       0.00000000
Si       2.71505886       2.71443221      -0.00003425       0.00000000
