10
Lattice="16.28999089631971 0.0 0.0 0.0 16.28999089631971 0.0 0.0 0.0 34.24959146834617" Properties=species:S:1:pos:R:3:initial_magmoms:R:1 pbc="T T T"
Si      -0.73552282       1.77344343      -1.18969447       0.00000000
Si       1.71331704      -1.19040804      -0.95977684       0.00000000
Si       0.18678114       0.82231920       2.13717570       0.00000000
Si       2.72458395       0.24389388       0.74177807       0.00000000
Si       0.23509728      -1.43729928       2.74034559       0.00000000
Si      -2.08256442       1.40998095       1.95000158       0.00000000
Si      -2.22165368       0.28740447      -2.35647596       0.00000000
Si       1.81431504      -2.53252485       1.11759904       0.00000000
Si       0.40048965      -2.54417220      -2.33318622       0.00000000
Si      -1.93328906       3.13780393       0.24430247       0.00000000
