10
Lattice="16.290000149 0.0 0.0 0.0 16.290000149 0.0 0.0 0.0 29.1751946751" Properties=species:S:1:pos:R:3:initial_magmoms:R:1 pbc="T T T"
Si      -1.36394542       1.36959805       1.26010583       0.00000000
Si      -1.42014592      -1.30986262      -1.31343809       0.00000000
Si       1.33750675       1.44769231      -1.25587543       0.00000000
Si       1.29622789      -1.30365613       1.46059777       0.00000000
Si      -2.77711923       0.04334769       2.50072264       0.00000000
Si       2.68170869       0.08259030      -2.60659942       0.00000000
Si      -0.04105080      -2.65670354      -2.63484101       0.00000000
Si       2.68011227      -2.64697841       0.12513241       0.00000000
Si      -0.05010804       2.79039558      -2.60228149       0.00000000
Si      -2.78216913       0.08474058      -2.61791939       0.00000000
