10
Lattice="16.290000149 0.0 0.0 0.0 16.290000149 0.0 0.0 0.0 29.1751946751" Properties=species:S:1:pos:R:3:initial_magmoms:R:1 pbc="T T T"
Si       1.08351307      -1.42060204      -1.49692089       0.00000000
Si      -1.54834822       1.32551731      -1.18054508       0.00000000
Si      -1.05489154      -1.76332736       1.18127446       0.00000000
Si       2.12695274       0.97008580       0.68112409       0.00000000
Si       0.22361283       0.80806546       3.38893226       0.00000000
Si       2.37877985      -2.71389773      -0.06958284       0.00000000
Si      -0.20297340       2.70236441      -2.49497512       0.00000000
Si      -1.39851280      -0.87786811       3.31503149       0.00000000
Si       2.49668687      -0.09435168      -2.73753769       0.00000000
Si       0.54731143      -3.53950752       1.09377805       0.00000000
