10
Lattice="16.290000149 0.0 0.0 0.0 16.290000149 0.0 0.0 0.0 29.1751946751" Properties=species:S:1:pos:R:3:initial_magmoms:R:1 pbc="T T T"
Si       1.72313993      -0.74836261      -1.38293340       0.00000000
Si       1.35651718       1.35008263       1.33922896       0.00000000
Si      -1.43291403       1.18772020      -1.44816914       0.00000000
Si      -1.19365139      -1.69082057       1.18462960       0.00000000
Si      -1.65073413      -0.65998936      -2.89680508       0.00000000
Si       0.66420847      -0.84318670      -3.48804040       0.00000000
Si       2.56477907      -2.59626764      -0.26193490       0.00000000
Si      -2.65358401      -0.40700565       2.52785557       0.00000000
Si      -0.08762391       2.54477495       2.69622853       0.00000000
Si       2.63661797      -0.14511132       2.67492947       0.00000000
