10
Lattice="16.290000149 0.0 0.0 0.0 16.290000149 0.0 0.0 0.0 29.1751946751" Properties=species:S:1:pos:R:3:initial_magmoms:R:1 pbc="T T T"
Si      -1.30420999       1.37987704      -1.37464765       0.00000000
Si       1.37831972       1.35977518       1.33663237       0.00000000
Si       1.39601880      -1.33888326      -1.34719379       0.00000000
Si      -1.38435679      -1.33580771       1.38024928       0.00000000
Si       0.08813169      -2.62667814       2.64843665       0.00000000
Si      -2.67711491      -0.00469152      -2.68391368       0.00000000
Si      -2.62783766       2.74988235      -0.00008753       0.00000000
Si       0.02573820      -2.71109585      -2.67752432       0.00000000
Si      -2.61586451       0.09249462       2.79883478       0.00000000
Si       2.72473058       0.02319696       2.71311805       0.00000000
