10
Lattice="16.290000149 0.0 0.0 0.0 16.290000149 0.0 0.0 0.0 29.1751946751" Properties=species:S:1:pos:R:3:initial_magmoms:R:1 pbc="T T T"
Si      -2.19372545       0.72358552       0.46630714       0.00000000
Si      -0.26282286      -2.03274767       1.19530773       0.00000000
Si       1.57345111       1.31426092       1.20251400       0.00000000
Si      -0.29038554       0.88560586      -2.24150103       0.00000000
H        2.24512040      -0.94791511      -1.63894574       0.00000000
H        0.80456311      -1.86549824      -2.17921199       0.00000000
H        1.60935427      -2.62712090      -0.52880040       0.00000000
H        1.05091678      -2.49567689       1.79940931       0.00000000
Si      -2.15471090       2.86931085      -0.51298745       0.00000000
Si      -0.40757580       3.19093736      -2.00550288       0.00000000
