10
Lattice="16.290000149 0.0 0.0 0.0 16.290000149 0.0 0.0 0.0 29.1751946751" Properties=species:S:1:pos:R:3:initial_magmoms:R:1 pbc="T T T"
Si      -1.48460545       1.80142967      -0.11801366       0.00000000
Si       1.12653496      -1.11462697      -1.75304992       0.00000000
Si      -1.66004876      -1.52363629       0.73393120       0.00000000
Si       1.86116510       0.83989612       1.25444585       0.00000000
H       -0.75364057       0.55423468       2.49938058       0.00000000
H       -1.40341609       0.97816564       2.45558861       0.00000000
Si       2.46881468      -2.52776819      -0.38059041       0.00000000
H        1.36620973       3.20087100      -0.96636997       0.00000000
H        0.80777224       3.33231501       1.36183974       0.00000000
Si       2.55454895       2.70058880      -0.16376037       0.00000000
