10
Lattice="16.290000149 0.0 0.0 0.0 16.290000149 0.0 0.0 0.0 29.1751946751" Properties=species:S:1:pos:R:3:initial_magmoms:R:1 pbc="T T T"
Si       1.36280512      -1.33965703       1.36405705       0.00000000
Si       1.35602848       1.37051029      -1.34596843       0.00000000
Si      -1.35524656       1.35288451       1.36592426       0.00000000
Si      -1.33519357      -1.40450752      -1.33852876       0.00000000
Si       2.70681158      -2.67043601      -0.02290253       0.00000000
Si      -2.76806199      -0.08482203      -2.62159547       0.00000000
Si       0.01086543      -2.73096965       2.69135336       0.00000000
Si      -2.72432333       2.70104492       0.02450716       0.00000000
Si       0.01032786       2.71572221      -2.71113414       0.00000000
Si       2.71316468       2.71881731       0.02153129       0.00000000
