10
Lattice="16.290000149 0.0 0.0 0.0 16.290000149 0.0 0.0 0.0 29.1751946751" Properties=species:S:1:pos:R:3:initial_magmoms:R:1 pbc="T T T"
Si       1.36492282       1.35547462       1.34710626       0.00000000
Si       1.36994014      -1.36347301      -1.33631144       0.00000000
Si      -1.34827444       1.36062226      -1.36560334       0.00000000
Si      -1.34846992      -1.34750881       1.37844042       0.00000000
Si      -0.01018125       2.71956665       2.67971246       0.00000000
Si       2.71559189      -0.02143764       2.68907769       0.00000000
Si       2.72155403       0.01181025      -2.68330100       0.00000000
Si      -2.69636969      -2.70945056       0.02783314       0.00000000
Si       0.02300148      -2.72028341      -2.69876386       0.00000000
Si      -2.70834284       0.00607617      -2.71909897       0.00000000
