10
Lattice="16.290000149 0.0 0.0 0.0 16.290000149 0.0 0.0 0.0 29.1751946751" Properties=species:S:1:pos:R:3:initial_magmoms:R:1 pbc="T T T"
Si       0.90789058       0.07273485      -1.21783098       0.00000000
H       -1.28342395      -1.74430064      -0.42528681       0.00000000
H        1.89405461       0.42179697       1.23734918       0.00000000
Si      -1.80853211      -2.00845928       0.96138101       0.00000000
Si       1.17900505       2.94570118       0.24848513       0.00000000
Si       0.01918962       1.49688811      -2.80887104       0.00000000
Si       1.25092540      -2.04566564      -2.15417967       0.00000000
Si       2.79427260       1.41475393      -0.83006346       0.00000000
Si      -2.64868886      -0.13932837       2.09191981       0.00000000
H       -2.88334632      -0.88809823      -1.61548888       0.00000000
