10
Lattice="16.290000149 0.0 0.0 0.0 16.290000149 0.0 0.0 0.0 29.1751946751" Properties=species:S:1:pos:R:3:initial_magmoms:R:1 pbc="T T T"
Si       1.43089732      -1.21428919       1.38302093       0.00000000
Si      -1.43413903       1.24597324       1.36925024       0.00000000
Si      -1.35801114      -1.40998096      -1.31419664       0.00000000
Si       1.36778986       1.42342021      -1.30442295       0.00000000
H       -1.18828221      -1.45411057       3.06316204       0.00000000
Si      -0.04809297      -2.41575815       2.77158514       0.00000000
Si      -0.01140463       2.68364720       2.53173587       0.00000000
Si       2.57346164      -2.64316655      -0.07982333       0.00000000
Si       2.56767869       0.02274084      -2.77826626       0.00000000
Si      -2.72562653       2.65836512       0.00948194       0.00000000
