10
Lattice="16.290000149 0.0 0.0 0.0 16.290000149 0.0 0.0 0.0 29.1751946751" Properties=species:S:1:pos:R:3:initial_magmoms:R:1 pbc="T T T"
H       -0.90789058      -0.07273485       1.21783098       0.00000000
Si      -0.88870096       1.42415326      -1.59104007       0.00000000
Si       0.34303482      -2.11840049      -0.93634870       0.00000000
Si       1.88638202       1.34201908       0.38776751       0.00000000
H        0.98616403       0.34906212       2.45518016       0.00000000
H       -2.19131453      -1.81703549       0.79254416       0.00000000
Si       0.27111447       2.87296633       1.46631611       0.00000000
Si      -0.32679369       0.38810925      -3.60036490       0.00000000
Si      -1.72219511      -2.81127936      -1.83231893       0.00000000
Si       1.56256939      -3.44015481       0.58227854       0.00000000
