10
Lattice="16.290000149 0.0 0.0 0.0 16.290000149 0.0 0.0 0.0 29.1751946751" Properties=species:S:1:pos:R:3:initial_magmoms:R:1 pbc="T T T"
Si      -1.39000942      -1.34482096      -1.27593046       0.00000000
Si       1.32987684      -1.40869405       1.31145418       0.00000000
Si      -1.42504921       1.36028017       1.27031715       0.00000000
Si       1.29536452       1.31439124      -1.46941160       0.00000000
Si       2.62648722       2.67421529      -0.09020970       0.00000000
Si       2.66491533      -0.03196098       2.65675158       0.00000000
Si      -0.06879267       2.70990668       2.62509649       0.00000000
Si      -0.13170465      -2.74553292      -2.64081317       0.00000000
Si      -2.74976832      -0.02652012       2.65348396       0.00000000
Si       2.68036151      -2.73551456      -0.09487773       0.00000000
