10
Lattice="16.290000149 0.0 0.0 0.0 16.290000149 0.0 0.0 0.0 29.1751946751" Properties=species:S:1:pos:R:3:initial_magmoms:R:1 pbc="T T T"
H        1.27905823       0.04676859       0.82405337       0.00000000
Si      -1.36473223      -1.38970480       1.32280333       0.00000000
Si       0.59785930      -1.53317898      -1.75083261       0.00000000
Si      -0.79816602       2.25986285       0.20618110       0.00000000
Si       0.51592059       1.99181090      -1.70479415       0.00000000
Si       2.72616411       1.91524790      -0.89839177       0.00000000
Si       0.47568429      -2.56398086       2.26201119       0.00000000
H       -3.06010911       0.99901684      -1.51404673       0.00000000
Si       3.58819833      -0.16363305      -0.10806492       0.00000000
Si       2.67118535      -2.25119494      -0.91554678       0.00000000
