10
Lattice="16.290000149 0.0 0.0 0.0 16.290000149 0.0 0.0 0.0 29.1751946751" Properties=species:S:1:pos:R:3:initial_magmoms:R:1 pbc="T T T"
Si       1.92129149      -1.05759079       0.77652698       0.00000000
Si      -1.25850025      -1.32020840      -1.46675374       0.00000000
Si       1.16383906       1.43969229      -1.50450644       0.00000000
Si      -0.97306687       0.40403924       2.15438390       0.00000000
H       -1.88506253       1.96294339       0.65991373       0.00000000
Si       0.05211171       2.55606229       2.54218059       0.00000000
Si      -2.60762177      -2.60980626      -0.09233949       0.00000000
Si       3.66842658      -0.73596429      -0.71598845       0.00000000
Si       2.68610699       0.12447678      -2.70252746       0.00000000
Si       2.60491763       2.77006403      -0.29548637       0.00000000
