10
Lattice="16.290000149 0.0 0.0 0.0 16.290000149 0.0 0.0 0.0 29.1751946751" Properties=species:S:1:pos:R:3:initial_magmoms:R:1 pbc="T T T"
Si       1.33758332       1.35006634      -1.36913354       0.00000000
Si      -1.37680033       1.40029134       1.29394906       0.00000000
Si       1.34523962      -1.35338950       1.38628855       0.00000000
Si      -1.37924409      -1.36042678      -1.35658820       0.00000000
Si      -0.11478423      -2.74662435       2.58970698       0.00000000
Si      -2.69419172       0.06512742       2.65298798       0.00000000
Si       2.68615098      -2.68358204      -0.02103532       0.00000000
Si       2.67903225       2.69595593       0.02220232       0.00000000
Si      -0.06891322       2.68808623      -2.70168138       0.00000000
Si       2.68919721      -0.01159848      -2.72963121       0.00000000
