10
Lattice="16.290000149 0.0 0.0 0.0 16.290000149 0.0 0.0 0.0 29.1751946751" Properties=species:S:1:pos:R:3:initial_magmoms:R:1 pbc="T T T"
Si       1.44122518      -0.29004345      -0.44066214       0.00000000
Si      -1.98518087       0.08421930       1.05856359       0.00000000
Si      -1.22298805       1.95690143      -0.22138138       0.00000000
Si       0.65720377       2.66121587       1.05220340       0.00000000
Si       1.08232390      -0.05642856      -2.80029354       0.00000000
Si      -0.59715883       1.61935633      -2.54871583       0.00000000
Si       1.88683814      -2.42455475       0.44923965       0.00000000
Si      -0.96269014      -1.25297794       2.67661989       0.00000000
Si       2.66958893       1.29627676       0.96835389       0.00000000
H        1.63887176       2.40559319      -1.42631692       0.00000000
