10
Lattice="16.290000149 0.0 0.0 0.0 16.290000149 0.0 0.0 0.0 29.1751946751" Properties=species:S:1:pos:R:3:initial_magmoms:R:1 pbc="T T T"
Si       0.60061231       0.09316251       1.40000089       0.00000000
H        2.11387187      -0.75430846      -0.30432646       0.00000000
Si       1.39644397      -0.83435752      -1.62990143       0.00000000
Si      -0.47534220      -2.29806290      -1.78727243       0.00000000
Si      -1.11402424       0.53768403       2.92446316       0.00000000
H       -3.11844360      -0.62962480       0.73862840       0.00000000
Si       1.07950573      -1.93614797       2.45903128       0.00000000
Si       1.05656941       1.11659806      -3.00250681       0.00000000
H       -1.70883731      -2.66506031       1.19519103       0.00000000
Si       2.49903263       1.59379732       1.71783546       0.00000000
