10
Lattice="16.290000149 0.0 0.0 0.0 16.290000149 0.0 0.0 0.0 29.1751946751" Properties=species:S:1:pos:R:3:initial_magmoms:R:1 pbc="T T T"
Si       1.29945331       1.24366006      -1.49636656       0.00000000
Si       1.44575380      -1.34560288       1.28977701       0.00000000
Si      -1.50605938       1.33353199       1.24303834       0.00000000
Si      -1.43865136      -1.40597362      -1.31364232       0.00000000
Si       2.50302368      -2.81041599      -0.18987217       0.00000000
Si      -2.81784585      -0.14574663       2.52251651       0.00000000
Si      -0.12007359       2.61752609      -2.74821581       0.00000000
Si       0.13077612      -2.70361874       2.67320639       0.00000000
Si       2.48328020      -0.20743686      -2.90757073       0.00000000
Si       3.15509610       2.17512227      -0.39077256       0.00000000
