10
Lattice="16.290000149 0.0 0.0 0.0 16.290000149 0.0 0.0 0.0 29.1751946751" Properties=species:S:1:pos:R:3:initial_magmoms:R:1 pbc="T T T"
Si       1.30647430      -1.42377859      -1.30424965       0.00000000
Si       1.41307606       1.29645595       1.34315711       0.00000000
Si      -1.30082167      -1.48385611       1.27263775       0.00000000
Si      -1.28010079       1.49519395      -1.33570051       0.00000000
Si       2.57158829       0.05963769      -2.63119586       0.00000000
Si      -2.68482008      -0.11235213       2.62408236       0.00000000
Si      -2.63661797       0.14511132      -2.67492947       0.00000000
Si       0.03119535       2.65347812       2.66730833       0.00000000
Si      -0.07183890      -2.45115632      -2.93686437       0.00000000
Si      -2.72424188       2.68988627       0.02129906       0.00000000
