10
Lattice="16.290000149 0.0 0.0 0.0 16.290000149 0.0 0.0 0.0 29.1751946751" Properties=species:S:1:pos:R:3:initial_magmoms:R:1 pbc="T T T"
Si       1.36016614       1.36332640      -1.34235071       0.00000000
Si      -1.35311257       1.38491065       1.33753680       0.00000000
Si       1.38761479      -1.34270326       1.34640606       0.00000000
Si      -1.35705475      -1.36324495      -1.35798861       0.00000000
Si      -2.70940169       0.03054375       2.67151423       0.00000000
Si       0.05010804      -2.79039558       2.60228149       0.00000000
Si       2.69203655       2.71842635       0.04078692       0.00000000
Si       0.00032580       2.71642268      -2.69514613       0.00000000
Si       2.71135649       0.00268785      -2.70238158       0.00000000
Si      -2.72613152      -0.01508454      -2.69940571       0.00000000
