10
Lattice="16.290000149 0.0 0.0 0.0 16.290000149 0.0 0.0 0.0 29.1751946751" Properties=species:S:1:pos:R:3:initial_magmoms:R:1 pbc="T T T"
Si      -1.17139436       0.17255997      -2.01615183       0.00000000
Si       0.21782011       1.84770956       1.44863594       0.00000000
Si       2.31494260      -0.18319734      -0.59123532       0.00000000
Si      -1.16610011      -2.05711751       0.59537820       0.00000000
H       -2.70789976       0.58951882       0.02827076       0.00000000
H       -2.19681729      -0.94780108      -1.79929261       0.00000000
Si      -3.17848528      -0.69217840       0.67922771       0.00000000
Si       1.65073413       0.65998936       2.89680508       0.00000000
Si       1.87314151      -1.99446617      -2.07666118       0.00000000
Si       0.30767086      -0.91461835      -3.44176854       0.00000000
