10
Lattice="16.290000149 0.0 0.0 0.0 16.290000149 0.0 0.0 0.0 29.1751946751" Properties=species:S:1:pos:R:3:initial_magmoms:R:1 pbc="T T T"
Si       0.62856595      -0.40257477       2.14840299       0.00000000
Si       1.83146843       0.82560979      -1.16336089       0.00000000
Si      -0.87936679      -1.88916761      -1.06862903       0.00000000
Si      -1.60220296       1.77618017       0.08749641       0.00000000
H        2.67458996       1.75848923      -0.35036491       0.00000000
Si      -2.27401886      -0.60637897      -2.42930176       0.00000000
Si       0.53620164       2.11890548      -2.59069894       0.00000000
Si      -1.49670892      -0.98743465       3.15045422       0.00000000
Si      -3.45784575       0.84471796      -1.01809759       0.00000000
Si      -0.54731143       3.53950752      -1.09377805       0.00000000
