10
Lattice="16.290000149 0.0 0.0 0.0 16.290000149 0.0 0.0 0.0 29.1751946751" Properties=species:S:1:pos:R:3:initial_magmoms:R:1 pbc="T T T"
H       -1.10983771       0.05646114       1.02807551       0.00000000
Si       0.22239108      -2.13561902      -0.91274597       0.00000000
Si       2.06522993       0.69287887       0.89597023       0.00000000
Si      -0.22672422       1.51345504      -1.84194674       0.00000000
H       -0.46911942       0.99424387       2.62486309       0.00000000
H       -2.06904179       1.85044628       1.43466102       0.00000000
Si       2.34766595      -1.55075914      -1.91479720       0.00000000
H        2.42885531      -2.37402317       0.65880507       0.00000000
Si       3.32630400       0.44305542      -1.03904538       0.00000000
Si       1.72219511       2.81127936       1.83231893       0.00000000
