10
Lattice="16.290000149 0.0 0.0 0.0 16.290000149 0.0 0.0 0.0 29.1751946751" Properties=species:S:1:pos:R:3:initial_magmoms:R:1 pbc="T T T"
H        0.89924059      -0.90466516       0.81002010       0.00000000
Si       1.34809525       1.30877119      -1.39203606       0.00000000
Si      -1.14256432       1.42887736       1.46284426       0.00000000
Si      -1.31344642      -1.46616517      -1.27950734       0.00000000
H       -1.11570211      -1.25346664       2.23239837       0.00000000
Si      -2.57346164       2.64316655       0.07982333       0.00000000
Si      -0.49723596      -2.55647769       2.67431504       0.00000000
Si      -2.65985729      -0.12958695      -2.65599302       0.00000000
Si      -0.00578295       2.66590739      -2.69844293       0.00000000
Si       2.73600326       2.66214440      -0.10082947       0.00000000
