10
Lattice="16.290000149 0.0 0.0 0.0 16.290000149 0.0 0.0 0.0 29.1751946751" Properties=species:S:1:pos:R:3:initial_magmoms:R:1 pbc="T T T"
Si      -0.11719026       2.30533150       0.23599815       0.00000000
Si       1.59721822       0.07582995      -1.79488715       0.00000000
Si       0.29038554      -0.88560586       2.24150103       0.00000000
Si      -2.12695274      -0.97008580      -0.68112409       0.00000000
H        1.09494865      -2.75110410       0.06228904       0.00000000
H        2.53550594      -1.83352097       0.60255530       0.00000000
Si      -1.86432536       1.98370499       1.72851358       0.00000000
Si      -1.90333991      -0.16202034       2.70780817       0.00000000
Si       3.17813016      -1.00849762      -0.47751041       0.00000000
Si      -1.04343967      -2.39068784      -2.17804498       0.00000000
