10
Lattice="16.290000149 0.0 0.0 0.0 16.290000149 0.0 0.0 0.0 29.1751946751" Properties=species:S:1:pos:R:3:initial_magmoms:R:1 pbc="T T T"
Si       1.29759625       1.28367922       1.50470775       0.00000000
Si      -1.33530760      -1.36584207       1.40723051       0.00000000
Si       1.48827070      -1.29872727      -1.33208104       0.00000000
Si      -1.35645202       1.38624431      -1.40029264       0.00000000
Si       0.00413766      -2.55326905      -2.70089365       0.00000000
Si      -2.60910416       2.72887753       0.08493103       0.00000000
Si       2.70163136      -2.71747225       0.11213982       0.00000000
Si       2.28582911       3.06974578       0.34995646       0.00000000
Si       2.36928278       2.37711127      -1.87981614       0.00000000
Si       0.16599510       2.75890000      -2.68411791       0.00000000
