10
Lattice="16.290000149 0.0 0.0 0.0 16.290000149 0.0 0.0 0.0 29.1751946751" Properties=species:S:1:pos:R:3:initial_magmoms:R:1 pbc="T T T"
H       -1.04518270       1.11427348       0.03816115       0.00000000
Si      -0.82241695      -1.93851816       1.01480080       0.00000000
Si       0.26829630      -0.72942548      -2.20940832       0.00000000
Si       1.87650539       0.88673313       1.12064840       0.00000000
Si       2.52030412      -1.30442991      -2.03345272       0.00000000
Si      -2.38679453      -2.71876030      -0.57588917       0.00000000
Si       0.94470598       1.70035836       3.11675687       0.00000000
H        0.18112851       3.27545477      -1.71620165       0.00000000
Si      -2.87487552       0.52010875       2.39793843       0.00000000
Si      -1.30108231       2.20766155       2.83968005       0.00000000
