10
Lattice="16.290000149 0.0 0.0 0.0 16.290000149 0.0 0.0 0.0 29.1751946751" Properties=species:S:1:pos:R:3:initial_magmoms:R:1 pbc="T T T"
Si      -0.65313127       0.42386580      -2.13181689       0.00000000
Si      -1.90777079      -0.79008130       1.12247477       0.00000000
Si       0.85734271       1.93670183       1.04065585       0.00000000
Si       1.70559560      -1.66856843      -0.12699495       0.00000000
H       -1.21116151      -2.61803108      -0.79900647       0.00000000
Si       2.17194572       0.67290733       2.51385439       0.00000000
Si      -0.65858842      -2.16073820       2.53588458       0.00000000
Si       3.43025049      -0.72780463       1.14897168       0.00000000
Si       0.83953774      -3.39634286       1.25586084       0.00000000
Si      -2.35423082       2.02183337      -2.14722139       0.00000000
