10
Lattice="16.290000149 0.0 0.0 0.0 16.290000149 0.0 0.0 0.0 29.1751946751" Properties=species:S:1:pos:R:3:initial_magmoms:R:1 pbc="T T T"
Si       1.33794658      -1.35391078      -1.35016003       0.00000000
Si       1.30176649       1.18674280       1.55109135       0.00000000
Si      -1.32639697      -1.40193370       1.33914231       0.00000000
Si      -1.21336066       1.41874498      -1.44422086       0.00000000
Si      -0.16788474      -2.63875196      -2.63521066       0.00000000
Si       0.39858372       2.90483934      -2.39331912       0.00000000
Si      -2.70827768      -0.04491153       2.66329353       0.00000000
Si      -2.70163136       2.71747225      -0.11213982       0.00000000
Si      -0.02148651       2.67520807       2.75715597       0.00000000
Si      -2.73947304      -2.69838965      -0.00401480       0.00000000
