10
Lattice="16.290000149 0.0 0.0 0.0 16.290000149 0.0 0.0 0.0 29.1751946751" Properties=species:S:1:pos:R:3:initial_magmoms:R:1 pbc="T T T"
Si       1.25320600      -1.10691203       1.60405220       0.00000000
Si      -1.80975386      -1.32695409      -0.60488931       0.00000000
Si       1.21845943       1.32261769      -1.49546213       0.00000000
Si      -1.33356457       1.54629568       1.15749667       0.00000000
H        3.08289882      -0.51274730      -0.75572507       0.00000000
Si      -0.64130473      -1.12329977       2.94377714       0.00000000
Si      -0.19448631      -2.85790134      -1.68343791       0.00000000
Si       2.75416662       2.04252167       0.11349151       0.00000000
Si      -3.03176451       0.54403714      -1.55661334       0.00000000
Si      -2.54137034      -1.67134750       1.65825971       0.00000000
