10
Lattice="16.290000149 0.0 0.0 0.0 16.290000149 0.0 0.0 0.0 29.1751946751" Properties=species:S:1:pos:R:3:initial_magmoms:R:1 pbc="T T T"
Si       1.31460301      -1.26379450       1.47319854       0.00000000
Si      -0.85734271      -1.93670183      -1.04065585       0.00000000
Si      -1.43176069       1.37140624       1.28493392       0.00000000
Si       1.21694446       1.43470918      -1.44302555       0.00000000
Si       2.57290778      -2.66450645       0.10831583       0.00000000
Si       2.61184088       2.75595852      -0.07679787       0.00000000
Si      -0.06006123       2.77773825       2.59759304       0.00000000
Si      -0.09637164      -2.66825315       2.73115708       0.00000000
Si       2.75478564       0.16312806      -2.64136750       0.00000000
Si      -1.51047397      -1.51283602      -3.17247274       0.00000000
