10
Lattice="16.290000149 0.0 0.0 0.0 16.290000149 0.0 0.0 0.0 29.1751946751" Properties=species:S:1:pos:R:3:initial_magmoms:R:1 pbc="T T T"
Si       1.82044010      -0.88780501       1.14658515       0.00000000
Si      -0.87475672       1.78095314       1.28417537       0.00000000
Si       1.12176199       1.44052471      -1.55118675       0.00000000
Si      -1.02517858      -2.15202305      -0.38779669       0.00000000
H       -1.93717424      -0.59311891      -1.88226686       0.00000000
Si       2.60698646       2.45540801      -0.08116539       0.00000000
Si      -0.05211171      -2.55606229      -2.54218059       0.00000000
Si      -1.95668966       0.61709779       2.99077838       0.00000000
Si       0.99702946       3.24465852       1.44154637       0.00000000
H        3.19749897      -0.62721388      -1.75827228       0.00000000
