10
Lattice="16.290000149 0.0 0.0 0.0 16.290000149 0.0 0.0 0.0 29.1751946751" Properties=species:S:1:pos:R:3:initial_magmoms:R:1 pbc="T T T"
Si       1.34156296       1.33283152      -1.37295549       0.00000000
Si      -1.43865136       1.37044513       1.23227270       0.00000000
Si       1.34125345      -1.34726446       1.38357526       0.00000000
Si      -1.38336310      -1.35045730      -1.34001669       0.00000000
Si      -0.16034247      -2.70943427       2.54474801       0.00000000
Si       2.70148475       2.64099998       0.01651316       0.00000000
Si      -0.01311345      -2.73733905      -2.65126664       0.00000000
Si      -2.81355996       0.05025465       2.58929853       0.00000000
Si       2.71490771      -0.02604771      -2.69415418       0.00000000
Si      -0.01503567       2.66729204      -2.75075405       0.00000000
