10
Lattice="16.290000149 0.0 0.0 0.0 16.290000149 0.0 0.0 0.0 29.1751946751" Properties=species:S:1:pos:R:3:initial_magmoms:R:1 pbc="T T T"
Si       1.35454772      -1.38883654      -1.32974702       0.00000000
Si       1.36433475       1.32986674       1.37928650       0.00000000
Si      -1.34073217      -1.35314515       1.38555917       0.00000000
Si      -1.34838847       1.38474775      -1.36210231       0.00000000
Si      -2.69151527       2.68780115       0.06249327       0.00000000
Si       2.71101440       2.67755474       0.01064895       0.00000000
Si      -2.69698871      -2.70277166       0.03077983       0.00000000
Si       2.70076799      -0.06007752      -2.71074611       0.00000000
Si      -2.69514794       0.05193252      -2.75118585       0.00000000
Si       0.03406133       2.67926519       2.77062236       0.00000000
