10
Lattice="16.290000149 0.0 0.0 0.0 16.290000149 0.0 0.0 0.0 29.1751946751" Properties=species:S:1:pos:R:3:initial_magmoms:R:1 pbc="T T T"
Si       1.30082167       1.48385611      -1.27263775       0.00000000
Si       1.37420812      -1.35099487       1.36062897       0.00000000
Si      -1.38399841       1.37150398       1.35144462       0.00000000
Si      -1.17266824      -1.46893447      -1.44967458       0.00000000
Si       2.60729597       0.06007752      -2.57688740       0.00000000
Si      -2.52944769      -0.06185313      -2.76293762       0.00000000
Si      -2.66121425      -2.66771558      -0.01522653       0.00000000
Si       0.01819593      -2.66496257       2.76010179       0.00000000
Si       2.71759556       0.01858689       2.72412877       0.00000000
Si      -0.02174715       2.73968481       2.71450096       0.00000000
