10
Lattice="16.290000149 0.0 0.0 0.0 16.290000149 0.0 0.0 0.0 29.1751946751" Properties=species:S:1:pos:R:3:initial_magmoms:R:1 pbc="T T T"
Si       1.36050823      -1.35136954      -1.35323305       0.00000000
Si       1.37402893       1.36414090       1.33164341       0.00000000
Si      -1.35454609       1.35154873      -1.36922106       0.00000000
Si      -1.35399223      -1.34715043       1.37453095       0.00000000
Si       0.00068418       2.72302013       2.65284210       0.00000000
Si       2.68426622      -2.71575479       0.03938651       0.00000000
Si      -2.71427240      -2.69324201       0.00714792       0.00000000
Si      -2.72424188       0.03973131       2.68578090       0.00000000
Si       0.00071676      -2.69527826      -2.71641485       0.00000000
Si       2.71635752       0.02612916      -2.70941280       0.00000000
