10
Lattice="16.290000149 0.0 0.0 0.0 16.290000149 0.0 0.0 0.0 29.1751946751" Properties=species:S:1:pos:R:3:initial_magmoms:R:1 pbc="T T T"
H        1.08095554      -1.71217676      -0.78873738       0.00000000
Si      -0.24656544       0.51355854      -2.30033340       0.00000000
Si       1.94072546       0.85209733       1.06504282       0.00000000
Si      -1.74544094       1.54217431       0.45411424       0.00000000
Si      -0.83435752      -1.99718660       1.09349738       0.00000000
Si       0.70926661       2.05335436       2.66145112       0.00000000
Si      -2.17087058      -0.84395233       2.65272773       0.00000000
Si       1.98345413      -2.45376272      -1.76552290       0.00000000
Si      -2.14531157      -0.78824053      -2.92993410       0.00000000
Si      -0.70726294       3.39648947       1.40652096       0.00000000
