10
Lattice="16.290000149 0.0 0.0 0.0 16.290000149 0.0 0.0 0.0 29.1751946751" Properties=species:S:1:pos:R:3:initial_magmoms:R:1 pbc="T T T"
Si      -1.37650501      -1.31988097       1.36321097       0.00000000
Si      -1.37345878       1.35210259      -1.34538493       0.00000000
Si       1.29078703      -1.36809937      -1.41207942       0.00000000
Si       1.40520799       1.32655987       1.35883469       0.00000000
Si       0.04302189      -2.69374700       2.61506022       0.00000000
Si      -0.00980658       2.70207119      -2.69508778       0.00000000
Si       0.03639186       2.69221574       2.70573673       0.00000000
Si       2.67913487      -0.00845451      -2.72578009       0.00000000
Si       2.61073316      -2.80917795      -0.13645239       0.00000000
Si      -2.73310364      -2.70225038       0.01292461       0.00000000
