10
Lattice="16.290000149 0.0 0.0 0.0 16.290000149 0.0 0.0 0.0 29.1751946751" Properties=species:S:1:pos:R:3:initial_magmoms:R:1 pbc="T T T"
Si      -1.36231460      -1.39460320      -1.31868671       0.00000000
Si       1.29410530      -1.35303112       1.43171433       0.00000000
Si      -1.35048467       1.32682051       1.40633191       0.00000000
Si       1.37415437       1.36081774      -1.36164426       0.00000000
Si      -2.66143253      -2.68535603       0.15328647       0.00000000
Si      -2.81206616      -0.01001835      -2.54593544       0.00000000
Si       0.07009261      -2.70134303      -2.67077318       0.00000000
Si       2.69454033       2.70202232       0.03232612       0.00000000
Si       2.65019895      -2.74804483       0.14234577       0.00000000
Si      -2.68036151       2.73551456       0.09487773       0.00000000
