10
Lattice="16.290000149 0.0 0.0 0.0 16.290000149 0.0 0.0 0.0 29.1751946751" Properties=species:S:1:pos:R:3:initial_magmoms:R:1 pbc="T T T"
Si      -0.47058552      -1.28169721       0.65095694       0.00000000
H        0.51108246      -1.53731989      -1.82756337       0.00000000
Si       1.53650539      -0.41695884      -2.04442259       0.00000000
Si       2.70789976      -0.58951882      -0.02827076       0.00000000
Si      -1.28655163      -0.29434401       2.59142832       0.00000000
Si       1.54179964      -2.64663632       0.56710743       0.00000000
Si      -2.35077734      -1.98601166      -0.62262783       0.00000000
Si      -2.78889690       1.01636569       1.29572875       0.00000000
Si      -1.87403420       2.85415464       0.12612437       0.00000000
Si       0.26292060       1.21313260      -3.20294040       0.00000000
