10
Lattice="16.290000149 0.0 0.0 0.0 16.290000149 0.0 0.0 0.0 29.1751946751" Properties=species:S:1:pos:R:3:initial_magmoms:R:1 pbc="T T T"
Si      -1.74713510      -0.32162650       1.49251543       0.00000000
Si       0.11719026      -2.30533150      -0.23599815       0.00000000
Si      -0.98231959       0.86044107      -1.98653901       0.00000000
Si       1.83466127       1.18657664       1.00458948       0.00000000
H       -0.41881590       2.66481271       1.49989676       0.00000000
Si      -2.50458752       2.17565658      -0.78851799       0.00000000
Si       1.71440849      -2.22950155      -2.03088530       0.00000000
Si      -1.06350895       3.50602831       0.42050208       0.00000000
Si       0.40757580      -3.19093736       2.00550288       0.00000000
Si      -3.66842658       0.73596429       0.71598845       0.00000000
