10
Lattice="10.86 0.0 0.0 0.0 10.86 0.0 0.0 0.0 10.86" Properties=species:S:1:pos:R:3:initial_magmoms:R:1 pbc="T T T"
Si      -1.30654488       1.26236640      -1.27737492       0.00000000
Si       1.40845512       1.26236640       1.43762508       0.00000000
Si       1.40845512      -1.45263360      -1.27737492       0.00000000
Si       0.05095512       2.61986640      -2.63487492       0.00000000
Si      -2.66404488       2.61986640       0.08012508       0.00000000
Si      -2.67871674      -0.17137080      -2.68282182       0.00000000
Si       2.76595512       2.61986640       0.08012508       0.00000000
Si       2.76595512      -0.09513360      -2.63487492       0.00000000
Si       0.05095512       2.61986640       2.79512508       0.00000000
Si       0.02830116      -2.96776650      -2.47753524       0.00000000
