10
Lattice="10.86 0.0 0.0 0.0 10.86 0.0 0.0 0.0 10.86" Properties=species:S:1:pos:R:3:initial_magmoms:R:1 pbc="T T T"
Si       1.50808476       1.22052282       1.12432494       0.00000000
Si      -1.20691524       1.22052282      -1.59067506       0.00000000
Si      -0.92439234      -1.81956042       1.53961134       0.00000000
Si       1.50808476      -1.49447718      -1.59067506       0.00000000
Si      -2.51867292      -0.14516562       2.43880848       0.00000000
Si       0.15058476       2.57802282       2.48182494       0.00000000
Si      -2.56441524       2.57802282      -0.23317506       0.00000000
Si      -2.51948742      -2.67109302       0.11280282       0.00000000
Si       2.86558476       2.57802282      -0.23317506       0.00000000
Si      -2.56441524      -0.13697718      -2.94817506       0.00000000
