10
Lattice="10.86 0.0 0.0 0.0 10.86 0.0 0.0 0.0 10.86" Properties=species:S:1:pos:R:3:initial_magmoms:R:1 pbc="T T T"
Si      -1.35750000       1.35750000       1.35750000       0.00000000
Si      -1.35750000      -1.35750000      -1.35750000       0.00000000
Si       1.40324232       1.34931156      -1.40051646       0.00000000
Si       1.32126018      -1.42435416       1.63066158       0.00000000
Si       2.81672562      -1.97491272      -0.37406184       0.00000000
Si       2.99752290      -0.32508324      -2.29971360       0.00000000
Si       0.00000000       2.71500000       2.71500000       0.00000000
Si      -2.71500000       0.00000000      -2.71500000       0.00000000
Si       0.00000000       2.71500000      -2.71500000       0.00000000
Si      -2.71500000       2.71500000       0.00000000       0.00000000
