10
Lattice="16.28999089631971 0.0 0.0 0.0 16.28999089631971 0.0 0.0 0.0 34.49183129400761" Properties=species:S:1:pos:R:3:initial_magmoms:R:1 pbc="T T T"
Si      -0.72154600      -1.90345948      -1.11121740       0.00000000
Si       1.45615007      -1.23750725       1.41087535       0.00000000
Si       1.45896824       0.98214202      -1.59664298       0.00000000
Si      -1.28782617       1.48042054       1.40924044       0.00000000
Si       0.04725729       2.23077052      -3.00835993       0.00000000
Si       2.68612652       2.66613706      -0.08196988       0.00000000
Si       0.08377621      -2.59524691       2.79125301       0.00000000
Si      -2.71601934      -2.69116243      -0.13338344       0.00000000
Si      -2.63489514       0.12131326       2.79490914       0.00000000
Si       2.99027711      -2.51982421      -0.16482621       0.00000000
