10
Lattice="16.28999089631971 0.0 0.0 0.0 16.28999089631971 0.0 0.0 0.0 34.49183129400761" Properties=species:S:1:pos:R:3:initial_magmoms:R:1 pbc="T T T"
Si       1.50202597       1.11759174      -1.44855425       0.00000000
Si      -1.92697735       1.40309028      -0.01424513       0.00000000
Si       1.26626080      -0.95325822       1.82085928       0.00000000
Si      -0.14129734      -2.06936757      -1.25081247       0.00000000
Si      -3.15058441       0.01099575      -1.42047788       0.00000000
Si       2.19290116      -2.41621425      -1.39926539       0.00000000
Si       0.17995563       1.21414257      -3.50064690       0.00000000
Si       3.28353295      -0.41278860      -1.76170576       0.00000000
Si       2.70455377      -2.66975181       0.90034078       0.00000000
Si      -1.35550786       3.63255827      -0.52520741       0.00000000
