10
Lattice="16.28999089631971 0.0 0.0 0.0 16.28999089631971 0.0 0.0 0.0 34.49183129400761" Properties=species:S:1:pos:R:3:initial_magmoms:R:1 pbc="T T T"
Si       1.36901812      -1.32001209       1.35801314       0.00000000
Si      -1.33890835      -1.35829345      -1.36132436       0.00000000
Si       1.37441011       1.35961879      -1.35649550       0.00000000
Si      -1.40232532       1.32715282       1.44413929       0.00000000
Si       2.18351812       0.49952308       2.64466264       0.00000000
Si       0.25816718       2.42285080       2.82343390       0.00000000
Si      -0.19373697      -2.51905369       2.77428302       0.00000000
Si      -2.69119012      -2.71308388       0.01145129       0.00000000
Si      -2.69477392      -0.00114030      -2.71650917       0.00000000
Si      -2.69439925       2.72304292       0.01469353       0.00000000
