10
Lattice="16.28999089631971 0.0 0.0 0.0 16.28999089631971 0.0 0.0 0.0 34.49183129400761" Properties=species:S:1:pos:R:3:initial_magmoms:R:1 pbc="T T T"
Si       1.35791811       1.35558864      -1.35746127       0.00000000
Si      -1.35809730      -1.35659879      -1.35742678       0.00000000
Si      -1.35725022       1.35767376       1.35739229       0.00000000
Si       1.35754344      -1.35784264       1.35739229       0.00000000
Si       2.71611315      -0.00137813      -2.70898994       0.00000000
Si      -2.71430496       0.00097088       2.71495703       0.00000000
Si      -2.71373481      -0.00314071      -2.71575035       0.00000000
Si       2.71451673      -0.00100998       2.71499153       0.00000000
Si       2.71494027       2.71463076       0.00003449       0.00000000
Si      -2.71495656      -2.71511036      -0.00006898       0.00000000
