10
Lattice="16.28999089631971 0.0 0.0 0.0 16.28999089631971 0.0 0.0 0.0 34.49183129400761" Properties=species:S:1:pos:R:3:initial_magmoms:R:1 pbc="T T T"
Si      -1.33644789      -1.35493393       1.37456923       0.00000000
Si      -1.35444834       1.35798705      -1.35980672       0.00000000
Si       1.36018242      -1.35776839      -1.35932383       0.00000000
Si       1.36169739       1.35750649       1.38891784       0.00000000
Si       2.71498914       2.71444557       0.00137967       0.00000000
Si      -2.71283886      -0.00036341      -2.71702654       0.00000000
Si      -2.71596654      -2.71422040       0.00127620       0.00000000
Si      -2.71394658       2.71744293      -0.00055187       0.00000000
Si       0.00260640       2.71468992      -2.71737146       0.00000000
Si       0.00273672      -2.71555618      -2.71709553       0.00000000
