10
Lattice="16.28999089631971 0.0 0.0 0.0 16.28999089631971 0.0 0.0 0.0 34.49183129400761" Properties=species:S:1:pos:R:3:initial_magmoms:R:1 pbc="T T T"
Si      -0.43794036       0.73261017      -2.27149531       0.00000000
Si       1.32765129      -1.93754889      -0.68569799       0.00000000
Si       1.10947932       0.72150039       2.10610689       0.00000000
Si      -2.49971679       1.29500613       0.56787383       0.00000000
Si      -2.51439408      -0.98860752       1.37670772       0.00000000
Si       0.64648494      -1.41747435       3.06101377       0.00000000
Si      -2.33621406      -2.62839639      -0.41862759       0.00000000
Si       3.45686832       0.41353794       1.71307225       0.00000000
Si       3.31894089      -1.89726372       0.67831673       0.00000000
Si      -0.05247009      -3.89287657      -0.08102136       0.00000000
