10
Lattice="16.28999089631971 0.0 0.0 0.0 16.28999089631971 0.0 0.0 0.0 34.49183129400761" Properties=species:S:1:pos:R:3:initial_magmoms:R:1 pbc="T T T"
Si      -0.74270997       2.13237729      -0.53510657       0.00000000
Si       2.17318374       0.12202839       0.87333366       0.00000000
Si      -1.27311237      -0.20357613       1.96593201       0.00000000
Si      -0.14714757      -1.17644751      -2.12428409       0.00000000
Si       0.81826299       2.57061087      -2.25687077       0.00000000
Si       2.39049234      -1.96687904       1.91581535       0.00000000
Si      -3.55672602      -0.00452862       1.43286046       0.00000000
Si       2.56500711       0.95575059      -2.69722822       0.00000000
Si       3.75372099      -0.02632464      -0.83994555       0.00000000
Si      -1.62955386      -0.02503773      -3.58253055       0.00000000
