10
Lattice="16.28999089631971 0.0 0.0 0.0 16.28999089631971 0.0 0.0 0.0 34.49183129400761" Properties=species:S:1:pos:R:3:initial_magmoms:R:1 pbc="T T T"
Si       1.35734796      -1.35795069       1.36253157       0.00000000
Si      -1.35858600       1.35641943       1.36308344       0.00000000
Si       1.34840475       1.36168110      -1.37695262       0.00000000
Si      -1.35669636      -1.36290285      -1.39087008       0.00000000
Si       2.71329498      -2.71368594       0.00306977       0.00000000
Si      -2.71552508       2.71379997       0.00203502       0.00000000
Si      -2.71449718      -2.71513575       0.00034492       0.00000000
Si       2.71598283       2.71425609       0.00096577       0.00000000
Si       2.71402803      -0.00045612       2.72037225       0.00000000
Si      -0.00079821       2.71432125       2.72016530       0.00000000
