10
Lattice="16.28999089631971 0.0 0.0 0.0 16.28999089631971 0.0 0.0 0.0 34.49183129400761" Properties=species:S:1:pos:R:3:initial_magmoms:R:1 pbc="T T T"
Si      -0.81450000      -1.81953517      -1.28664950       0.00000000
Si       1.06484472      -0.59204865       2.04809159       0.00000000
Si       1.87988229       0.96047469      -1.15923661       0.00000000
Si      -1.92535094       1.92332772       0.17877126       0.00000000
Si      -2.18351812      -0.49952308      -2.64466264       0.00000000
Si       0.55227987       2.22319404      -2.63710893       0.00000000
Si      -0.34880148      -2.31875837       2.82984939       0.00000000
Si      -2.37725509      -3.01857677       0.12962037       0.00000000
Si      -0.71679258       3.59692974      -1.15892618       0.00000000
Si      -3.58584344       0.82762974      -1.20052335       0.00000000
