10
Lattice="16.28999089631971 0.0 0.0 0.0 16.28999089631971 0.0 0.0 0.0 34.49183129400761" Properties=species:S:1:pos:R:3:initial_magmoms:R:1 pbc="T T T"
Si       0.85972104      -1.91529675      -1.10256650       0.00000000
Si      -1.29466404      -0.88084917       1.80892510       0.00000000
Si       2.20794660       0.79949691       0.56180326       0.00000000
Si      -0.95935068       1.95763446      -1.11018919       0.00000000
Si       0.34614621      -0.59451984       3.47070797       0.00000000
Si       1.59558921       2.70870120       1.72259200       0.00000000
Si      -0.27774450       3.59021826       0.50240830       0.00000000
Si       3.09083202       1.67760936      -1.48759902       0.00000000
Si       1.25247294       3.02505300      -2.29719174       0.00000000
Si      -2.74947507      -1.34179101      -2.64079956       0.00000000
