10
Lattice="16.28999089631971 0.0 0.0 0.0 16.28999089631971 0.0 0.0 0.0 34.49183129400761" Properties=species:S:1:pos:R:3:initial_magmoms:R:1 pbc="T T T"
Si      -1.19228139      -1.32362766       1.64234468       0.00000000
Si      -1.70342901       1.02236040      -1.43244655       0.00000000
Si       1.01942820      -1.24338312      -1.98172927       0.00000000
Si       1.54859256       1.49403735       1.60606960       0.00000000
Si      -2.37557070      -2.90359476       0.25327366       0.00000000
Si      -2.39190957       2.94764292      -0.04894394       0.00000000
Si      -2.44196874       0.09585036       3.11938575       0.00000000
Si       2.68089417       0.20110005      -2.98885682       0.00000000
Si       2.38308039      -3.01399209      -1.34245732       0.00000000
Si       0.26244819      -2.61451242       3.12514244       0.00000000
