10
Lattice="16.28999089631971 0.0 0.0 0.0 16.28999089631971 0.0 0.0 0.0 34.49183129400761" Properties=species:S:1:pos:R:3:initial_magmoms:R:1 pbc="T T T"
Si      -1.35218403      -1.33918461      -1.36862628       0.00000000
Si      -1.35335691       1.35842310       1.36135885       0.00000000
Si       1.36078515      -1.35596331       1.36018613       0.00000000
Si       1.36863693       1.35832536      -1.39550233       0.00000000
Si       0.04777857      -2.57839749      -2.81304151       0.00000000
Si      -2.70673663       2.71386513      -0.00213849       0.00000000
Si      -2.71133855      -2.71437012      -0.00037941       0.00000000
Si      -2.71120334       0.00094482       2.71775087       0.00000000
Si       2.71682991       2.71402803      -0.00051738       0.00000000
Si       0.00338832      -2.71384884       2.71775087       0.00000000
