10
Lattice="16.28999089631971 0.0 0.0 0.0 16.28999089631971 0.0 0.0 0.0 34.49183129400761" Properties=species:S:1:pos:R:3:initial_magmoms:R:1 pbc="T T T"
Si       1.91184327       0.10748142       1.26302258       0.00000000
Si       0.51287436      -0.32824350      -2.21968855       0.00000000
Si      -1.55854575       1.76008563      -0.06774199       0.00000000
Si      -0.29998035      -0.95993712       2.45002513       0.00000000
Si      -3.01480659      -0.23428278      -0.05380729       0.00000000
Si      -2.68060095      -0.72633852       2.30595267       0.00000000
Si       2.44460772       2.41852743       1.50684548       0.00000000
Si      -1.17755523      -1.47308841      -3.31683983       0.00000000
Si       1.63515762       1.40304141      -3.38375402       0.00000000
Si      -1.46869011       3.28176711       1.93868344       0.00000000
