10
Lattice="16.28999089631971 0.0 0.0 0.0 16.28999089631971 0.0 0.0 0.0 34.49183129400761" Properties=species:S:1:pos:R:3:initial_magmoms:R:1 pbc="T T T"
Si      -0.43271127      -1.58837274       1.68392664       0.00000000
Si       1.88825535      -0.52421220      -1.33873220       0.00000000
Si      -1.86636159      -0.32930235      -1.47404373       0.00000000
Si       0.54907074       2.10976677       1.00640322       0.00000000
Si       2.16595098       1.60858863      -2.39708014       0.00000000
Si      -1.29497355       2.73018771       2.23452005       0.00000000
Si      -2.20270122       1.71414783      -2.57195382       0.00000000
Si       1.45802016      -1.53642393       3.17369865       0.00000000
Si      -1.17397143      -1.92319740      -3.09540215       0.00000000
Si       1.20664917      -2.15679600      -2.95132969       0.00000000
