10
Lattice="16.28999089631971 0.0 0.0 0.0 16.28999089631971 0.0 0.0 0.0 34.49183129400761" Properties=species:S:1:pos:R:3:initial_magmoms:R:1 pbc="T T T"
Si      -2.25103365      -0.59414517      -0.38727450       0.00000000
Si       0.38933100       1.43588205      -1.86890643       0.00000000
Si      -0.09848934       1.43143488       1.94116686       0.00000000
Si       1.31900130      -2.00054232       0.31715257       0.00000000
Si       1.89969093       2.67126678       1.20386906       0.00000000
Si       1.01708244      -1.91195730       2.77169613       0.00000000
Si       1.92588525       0.20380419      -3.22553990       0.00000000
Si       1.18473912       3.49663221      -0.90389344       0.00000000
Si       0.19025091      -3.72786876      -0.87912829       0.00000000
Si      -1.67205447       1.66281804      -3.04932103       0.00000000
