10
Lattice="16.28999089631971 0.0 0.0 0.0 16.28999089631971 0.0 0.0 0.0 34.49183129400761" Properties=species:S:1:pos:R:3:initial_magmoms:R:1 pbc="T T T"
Si       0.38605671       2.31891897      -0.00500132       0.00000000
Si      -2.17647269      -0.35676729       0.82100952       0.00000000
Si       0.14221170      -1.05264581      -2.10621036       0.00000000
Si       1.43622414      -1.14851246       1.50584521       0.00000000
Si      -2.12948419      -2.58069668       1.63753510       0.00000000
Si       2.41135983      -0.90883769      -2.71944097       0.00000000
Si       3.63853440      -0.68877608       0.86305508       0.00000000
Si      -0.90725852       3.27388764      -1.74194193       0.00000000
Si      -2.46391658       0.83331984       2.82226118       0.00000000
Si       2.57497659       2.77239999      -0.74957690       0.00000000
