10
Lattice="16.28999089631971 0.0 0.0 0.0 16.28999089631971 0.0 0.0 0.0 34.49183129400761" Properties=species:S:1:pos:R:3:initial_magmoms:R:1 pbc="T T T"
Si      -1.58625504      -1.21974633       1.31051786       0.00000000
Si       1.19239542      -1.49304366      -1.49608402       0.00000000
Si      -1.49696955       1.21204116      -1.49680835       0.00000000
Si       1.82215053       1.10829015       1.55127098       0.00000000
Si       2.75709879       2.60664893      -0.09464564       0.00000000
Si       2.55663405      -0.14994945      -2.87299869       0.00000000
Si       2.56124412      -2.87191071      -0.13934708       0.00000000
Si      -0.16052166       2.56697509      -2.87137758       0.00000000
Si      -2.72945466      -2.72569167      -0.16942397       0.00000000
Si      -2.87986023       2.60478715      -0.15742081       0.00000000
