10
Lattice="16.28999089631971 0.0 0.0 0.0 16.28999089631971 0.0 0.0 0.0 34.49183129400761" Properties=species:S:1:pos:R:3:initial_magmoms:R:1 pbc="T T T"
Si      -1.95268230       0.91885374       0.88343977       0.00000000
Si       1.54217430       1.54098513      -0.87912829       0.00000000
Si       1.08908424      -1.18806228       1.77881372       0.00000000
Si      -0.95208534      -1.65641607      -1.47183625       0.00000000
Si      -2.56896558      -1.15523793       1.93164711       0.00000000
Si      -0.63983862      -1.19262348       3.37930457       0.00000000
Si       1.77106509       3.03435363       0.96542690       0.00000000
Si       2.59949304      -2.14138566      -1.40668114       0.00000000
Si       0.83320092      -2.04333615      -2.96926545       0.00000000
Si       3.43688049       0.09708840      -1.41923618       0.00000000
