10
Lattice="16.28999089631971 0.0 0.0 0.0 16.28999089631971 0.0 0.0 0.0 34.49183129400761" Properties=species:S:1:pos:R:3:initial_magmoms:R:1 pbc="T T T"
Si      -2.20231026      -0.45973638       0.64279013       0.00000000
Si       1.72507842      -1.12060539       1.12139905       0.00000000
Si       0.41884848       2.30976629      -0.15438552       0.00000000
Si       0.03746700      -1.34035749      -1.95834380       0.00000000
Si      -0.57881628      -3.41444916      -0.91013646       0.00000000
Si      -2.42286057      -2.79402822       0.31798037       0.00000000
Si       1.35031068      -3.45183471       0.53752100       0.00000000
Si       2.21193765       2.51787104      -1.69913754       0.00000000
Si      -1.22717457      -0.22006161      -3.58249606       0.00000000
Si      -3.63853440       0.68877608      -0.86305508       0.00000000
