10
Lattice="16.28999089631971 0.0 0.0 0.0 16.28999089631971 0.0 0.0 0.0 34.49183129400761" Properties=species:S:1:pos:R:3:initial_magmoms:R:1 pbc="T T T"
Si       1.08840820       0.92850557      -1.84821132       0.00000000
Si      -0.78525849       1.78829502       1.34963162       0.00000000
Si      -1.93205820      -0.11482169      -1.52453980       0.00000000
Si       1.92302636      -1.13446396       1.04789691       0.00000000
Si      -0.73102711       0.88077912      -3.31525320       0.00000000
Si       2.44189543      -0.81702073      -2.42260411       0.00000000
Si      -2.50352769      -2.34428968      -1.01357752       0.00000000
Si      -3.09107541       1.27559985       1.41502817       0.00000000
Si       0.92547563      -2.62978822      -2.44788663       0.00000000
Si       3.74481850      -0.88372828      -0.46208732       0.00000000
