10
Lattice="16.28999089631971 0.0 0.0 0.0 16.28999089631971 0.0 0.0 0.0 34.49183129400761" Properties=species:S:1:pos:R:3:initial_magmoms:R:1 pbc="T T T"
Si       0.03029940      -1.05969612       2.07561609       0.00000000
Si      -1.54927674       1.74272864       0.17721913       0.00000000
Si       1.93376961       1.32205568      -0.22961225       0.00000000
Si      -0.22889079      -1.49336850      -1.84455518       0.00000000
Si       1.39105197       0.42845632       3.25589273       0.00000000
Si      -1.32980157       0.07158315      -3.31642592       0.00000000
Si      -2.32637490       1.82193061      -2.02898311       0.00000000
Si      -1.77106509      -3.03435363      -0.96542690       0.00000000
Si       1.05775857      -3.10510110       1.90257048       0.00000000
Si       3.61895382      -0.03799317      -1.19117606       0.00000000
