10
Lattice="16.28999089631971 0.0 0.0 0.0 16.28999089631971 0.0 0.0 0.0 34.49183129400761" Properties=species:S:1:pos:R:3:initial_magmoms:R:1 pbc="T T T"
Si      -1.58053725       0.14835303       1.71327920       0.00000000
Si      -1.18871388       0.98207523      -1.85728268       0.00000000
Si       0.83254932      -2.25629043       0.24958303       0.00000000
Si       2.31923988       0.89803512      -0.09236918       0.00000000
Si       2.54930355      -1.32390459      -1.12443433       0.00000000
Si       1.29321423       2.93858568      -1.00278157       0.00000000
Si      -1.36322865      -1.94055439       2.75576089       0.00000000
Si      -2.10777939      -0.94201812      -2.82909057       0.00000000
Si       0.94240908      -2.43458448       2.64593884       0.00000000
Si       2.82576114       0.86838732       2.30553877       0.00000000
