10
Lattice="16.28999089631971 0.0 0.0 0.0 16.28999089631971 0.0 0.0 0.0 34.49183129400761" Properties=species:S:1:pos:R:3:initial_magmoms:R:1 pbc="T T T"
Si       1.35534429      -1.35783666       1.35801314       0.00000000
Si      -1.35723393       1.35594702       1.35877196       0.00000000
Si       1.35866745       1.35601218      -1.35828908       0.00000000
Si      -1.35672894      -1.35907470      -1.35822009       0.00000000
Si      -0.00211770       2.69711901       2.72578747       0.00000000
Si      -2.71147050       2.71379997      -0.00279384       0.00000000
Si       0.00140094       2.71373481      -2.71588831       0.00000000
Si      -2.71430496      -0.00148239      -2.71571585       0.00000000
Si      -2.71497285      -2.71538010      -0.00165561       0.00000000
Si      -2.69250894      -0.00847080       2.73806657       0.00000000
