10
Lattice="16.28999089631971 0.0 0.0 0.0 16.28999089631971 0.0 0.0 0.0 34.49183129400761" Properties=species:S:1:pos:R:3:initial_magmoms:R:1 pbc="T T T"
Si       1.59270588       1.59542631       0.71239468       0.00000000
Si      -1.92813327       0.50891589      -1.31996863       0.00000000
Si      -1.37673306      -0.45884043       1.91967844       0.00000000
Si       1.52029683      -1.43759250      -1.20887038       0.00000000
Si      -2.70837540      -1.77924267      -1.62301403       0.00000000
Si       3.33979209      -0.11696220      -1.79947434       0.00000000
Si       3.10428756       2.05866504      -1.00892112       0.00000000
Si       0.55851894       3.40964361       1.73328447       0.00000000
Si       0.50275827      -2.00929005      -3.28517631       0.00000000
Si      -3.66464727      -0.41467824       1.40516350       0.00000000
