10
Lattice="16.28999089631971 0.0 0.0 0.0 16.28999089631971 0.0 0.0 0.0 34.49183129400761" Properties=species:S:1:pos:R:3:initial_magmoms:R:1 pbc="T T T"
Si       0.52269723      -1.98760806       1.06134873       0.00000000
Si      -2.28791421       0.04416219      -0.51451493       0.00000000
Si      -0.09185931       1.45777581       1.88446226       0.00000000
Si       1.37673306       0.45884043      -1.91967844       0.00000000
Si      -0.55140021       0.96775632      -3.23964706       0.00000000
Si      -0.11901474       3.52569357       0.80876491       0.00000000
Si      -2.38576824       1.85212413      -1.99856130       0.00000000
Si      -0.98148879      -2.03942655       2.93091051       0.00000000
Si       0.02327841      -3.76898472      -0.41248804       0.00000000
Si      -3.51803727       0.00322542       1.42789363       0.00000000
