10
Lattice="16.28999089631971 0.0 0.0 0.0 16.28999089631971 0.0 0.0 0.0 34.49183129400761" Properties=species:S:1:pos:R:3:initial_magmoms:R:1 pbc="T T T"
Si      -1.41171095       1.24862850      -1.41171695       0.00000000
Si      -1.45896824      -0.98214202       1.59664298       0.00000000
Si       1.23144255      -1.50824386      -1.41344154       0.00000000
Si       1.22715828       1.68399504       1.51467310       0.00000000
Si       2.30747850       0.35508942      -2.37914438       0.00000000
Si       0.54275022       1.97209998      -2.65356154       0.00000000
Si      -2.18051424      -2.88560150       0.48542558       0.00000000
Si      -0.00281817      -2.21964927       3.00751833       0.00000000
Si      -2.49974448       3.03340977      -0.20236369       0.00000000
Si       3.13505937      -2.41475534       0.00196604       0.00000000
