10
Lattice="16.28999089631971 0.0 0.0 0.0 16.28999089631971 0.0 0.0 0.0 34.49183129400761" Properties=species:S:1:pos:R:3:initial_magmoms:R:1 pbc="T T T"
Si       0.61235739      -1.90920429      -1.16078874       0.00000000
Si       1.56113586       1.72061496      -0.01941891       0.00000000
Si      -0.46920087      -1.01506248       2.05116137       0.00000000
Si      -1.87333371       0.88151706      -1.22018371       0.00000000
Si      -1.59558921      -2.70870120      -1.72259200       0.00000000
Si       0.44553150       3.48267168       0.97211832       0.00000000
Si       1.49524281      -1.03109184      -3.21019102       0.00000000
Si      -2.55493989      -0.75106674      -2.83278120       0.00000000
Si       1.95594030       2.52934830      -2.21337654       0.00000000
Si      -1.24944300      -3.30322104       1.74811597       0.00000000
