10
Lattice="16.28999089631971 0.0 0.0 0.0 16.28999089631971 0.0 0.0 0.0 34.49183129400761" Properties=species:S:1:pos:R:3:initial_magmoms:R:1 pbc="T T T"
Si       1.07603595       1.86333328      -0.96570283       0.00000000
Si      -1.23144255       1.50824386       1.41344154       0.00000000
Si       1.90361682      -0.90651148       1.41540758       0.00000000
Si      -1.28186010      -1.32250921      -2.13980543       0.00000000
Si       0.29986632      -1.99372237       2.84525832       0.00000000
Si       1.84067226       0.78096378      -2.89369380       0.00000000
Si      -1.58513103      -2.96983546       1.49880887       0.00000000
Si      -1.13937147      -3.40917676      -0.96549588       0.00000000
Si      -0.68869233       3.48034384      -1.24012000       0.00000000
Si      -2.64315350       2.75687236       0.00172459       0.00000000
