10
Lattice="16.28999089631971 0.0 0.0 0.0 16.28999089631971 0.0 0.0 0.0 34.49183129400761" Properties=species:S:1:pos:R:3:initial_magmoms:R:1 pbc="T T T"
Si       1.41171095      -1.24862850       1.41171695       0.00000000
Si      -1.08803353       1.78478127       1.20935326       0.00000000
Si       1.95446117       0.72347148      -1.24184459       0.00000000
Si      -1.34699145      -1.15662258      -1.83979531       0.00000000
Si      -1.12225883       1.02512970      -2.78390624       0.00000000
Si      -1.66643835       2.88344403      -1.16413445       0.00000000
Si      -0.04725729      -2.23077052       3.00835993       0.00000000
Si       1.14115034       1.36743147      -3.35184905       0.00000000
Si       2.64315350      -2.75687236      -0.00172459       0.00000000
Si       3.71918945      -0.89353908      -0.96742742       0.00000000
