10
Lattice="16.28999089631971 0.0 0.0 0.0 16.28999089631971 0.0 0.0 0.0 34.49183129400761" Properties=species:S:1:pos:R:3:initial_magmoms:R:1 pbc="T T T"
Si       1.11560436      -1.76205672      -0.99153723       0.00000000
Si       1.73973942       1.11731481       1.08918366       0.00000000
Si      -1.72892286      -0.00456120       1.60049085       0.00000000
Si      -1.08908424       1.18806228      -1.77881372       0.00000000
Si      -1.35415512       2.32666812       2.18436890       0.00000000
Si       0.71228025       3.16271979       1.26222927       0.00000000
Si      -0.44553150      -3.48267168      -0.97211832       0.00000000
Si       1.51040880      -0.95332338      -3.18549486       0.00000000
Si      -3.65804982       0.03282435       0.15283339       0.00000000
Si      -3.04176654       2.10691602      -0.89537395       0.00000000
