10
Lattice="16.28999089631971 0.0 0.0 0.0 16.28999089631971 0.0 0.0 0.0 34.49183129400761" Properties=species:S:1:pos:R:3:initial_magmoms:R:1 pbc="T T T"
Si      -0.26147079      -2.17627884       0.74585178       0.00000000
Si       2.27880810      -0.22706631       0.53117450       0.00000000
Si      -0.09365121       0.53804241      -2.29726072       0.00000000
Si      -1.24281297       0.82717362       1.85917973       0.00000000
Si       1.69192827      -2.01955275       2.07268428       0.00000000
Si      -1.12111038       2.58344739      -2.12421511       0.00000000
Si      -3.18754575       1.74739572      -1.20207548       0.00000000
Si       2.00352339       0.02723688      -3.27137957       0.00000000
Si      -2.31573753      -2.51906931       1.74101065       0.00000000
Si       0.13962159       2.21622192       3.13306725       0.00000000
