10
Lattice="16.28999089631971 0.0 0.0 0.0 16.28999089631971 0.0 0.0 0.0 34.49183129400761" Properties=species:S:1:pos:R:3:initial_magmoms:R:1 pbc="T T T"
Si      -1.38243456      -1.38904830      -1.27388752       0.00000000
Si       2.00920860      -0.95843844       0.75978648       0.00000000
Si       0.20988036       1.67708386      -1.68064991       0.00000000
Si      -1.76257800       0.61921548       1.77208781       0.00000000
Si      -2.09575737       2.17111395      -1.57082786       0.00000000
Si       0.76361004      -1.06178220       3.21771025       0.00000000
Si       1.42068348      -3.20930919       1.06503936       0.00000000
Si       2.20696920       2.74984064      -1.06041745       0.00000000
Si       3.36279357      -1.05119370      -1.19566000       0.00000000
Si      -3.11187870       0.02365308      -2.05219613       0.00000000
