10
Lattice="16.28999089631971 0.0 0.0 0.0 16.28999089631971 0.0 0.0 0.0 34.49183129400761" Properties=species:S:1:pos:R:3:initial_magmoms:R:1 pbc="T T T"
Si       1.60417404      -1.22655555       1.35994468       0.00000000
Si      -0.89705772       1.72761966       1.46255794       0.00000000
Si      -1.51197264      -1.94137704      -0.57494466       0.00000000
Si       1.24559856       0.10334376      -2.45792376       0.00000000
Si       0.65707344      -2.14752699      -2.15267089       0.00000000
Si      -2.52618804       1.68099768      -1.44562244       0.00000000
Si      -0.76361004       1.06178220      -3.21771025       0.00000000
Si       0.18844272      -2.33792451       2.84298875       0.00000000
Si       1.97293077      -3.11655393      -0.48647306       0.00000000
Si      -1.54776177       3.38322679      -0.03956215       0.00000000
