10
Lattice="16.28999089631971 0.0 0.0 0.0 16.28999089631971 0.0 0.0 0.0 34.49183129400761" Properties=species:S:1:pos:R:3:initial_magmoms:R:1 pbc="T T T"
Si      -0.87109146       1.51547499      -1.52453980       0.00000000
Si       0.90095103       1.64126637       1.45397779       0.00000000
Si      -1.77802092      -1.11889494       1.22736288       0.00000000
Si       1.74087972      -0.84776418      -2.01804919       0.00000000
Si       2.09606688      -2.40156954      -0.14110616       0.00000000
Si       2.17336293       0.20913102       2.79061978       0.00000000
Si       2.35579464       2.82123252       0.01945340       0.00000000
Si       3.25285236       1.09361286      -1.44310454       0.00000000
Si      -1.65569931       0.29677122      -3.35074532       0.00000000
Si      -0.55990359      -2.49932583       2.77095597       0.00000000
