10
Lattice="16.28999089631971 0.0 0.0 0.0 16.28999089631971 0.0 0.0 0.0 34.49183129400761" Properties=species:S:1:pos:R:3:initial_magmoms:R:1 pbc="T T T"
Si      -1.34706897      -1.35910728       1.38566871       0.00000000
Si       1.36802835       1.35715248       1.38208155       0.00000000
Si       1.28782617      -1.48042054      -1.40924044       0.00000000
Si      -1.29161781       1.48423077      -1.45950886       0.00000000
Si      -2.68035660       2.72699487       0.03045285       0.00000000
Si      -2.67867873      -2.73333152       0.02271978       0.00000000
Si       2.72582918       2.70938538      -0.00913344       0.00000000
Si      -2.70606222      -0.00102627       2.74457864       0.00000000
Si       0.01069689      -2.71478169       2.74492355       0.00000000
Si       0.00778783       2.71521720       2.74454414       0.00000000
