10
Lattice="16.28999089631971 0.0 0.0 0.0 16.28999089631971 0.0 0.0 0.0 34.49183129400761" Properties=species:S:1:pos:R:3:initial_magmoms:R:1 pbc="T T T"
Si      -1.40154273       1.33570653      -1.27355984       0.00000000
Si       1.33160976       1.37422424       1.36294892       0.00000000
Si      -1.38212505      -1.34440476       1.36384571       0.00000000
Si       1.25048556      -1.43825145      -1.56534365       0.00000000
Si      -2.54773971      -0.08849463      -2.76739641       0.00000000
Si       2.66703138      -2.69456883      -0.01611114       0.00000000
Si       2.68937562       0.01854982       2.72220377       0.00000000
Si       2.67867873       2.73333152      -0.02271978       0.00000000
Si      -0.02647125      -2.69719152       2.72316954       0.00000000
Si      -2.73017142      -2.70059613       0.00376996       0.00000000
