10
Lattice="16.28999089631971 0.0 0.0 0.0 16.28999089631971 0.0 0.0 0.0 34.49183129400761" Properties=species:S:1:pos:R:3:initial_magmoms:R:1 pbc="T T T"
Si      -1.35790182       1.35751086      -1.35887544       0.00000000
Si       1.35866745      -1.35676804      -1.36008265       0.00000000
Si      -1.36153449      -1.35147379       1.36580830       0.00000000
Si       1.35904212       1.36741518       1.37112004       0.00000000
Si      -2.56464873       0.14810868       2.77738728       0.00000000
Si       2.71453302      -2.71392119      -0.00489784       0.00000000
Si       2.71568224       2.71308321       0.00155213       0.00000000
Si      -2.71529865      -2.71504520      -0.00213849       0.00000000
Si      -0.00047241      -2.71415275      -2.71688858       0.00000000
Si       2.71455598       0.00058644      -2.71675061       0.00000000
