10
Lattice="16.28999089631971 0.0 0.0 0.0 16.28999089631971 0.0 0.0 0.0 34.49183129400761" Properties=species:S:1:pos:R:3:initial_magmoms:R:1 pbc="T T T"
Si       1.33687143      -1.34431238       1.39381568       0.00000000
Si       1.36153449       1.35147379      -1.36580830       0.00000000
Si      -1.35376416      -1.36357141      -1.36794679       0.00000000
Si      -1.20311424       1.49958247       1.41157898       0.00000000
Si      -2.44319049       0.00645898       2.73313424       0.00000000
Si       2.41140870       0.24065380       2.85033755       0.00000000
Si      -2.70555723       2.69800519       0.00413902       0.00000000
Si      -2.70987408      -2.72285788      -0.02662771       0.00000000
Si       0.00363267       2.70898465      -2.72468374       0.00000000
Si      -2.71228500      -0.00597191      -2.72509764       0.00000000
