10
Lattice="16.28999089631971 0.0 0.0 0.0 16.28999089631971 0.0 0.0 0.0 34.49183129400761" Properties=species:S:1:pos:R:3:initial_magmoms:R:1 pbc="T T T"
Si      -1.33687143       1.34431238      -1.39381568       0.00000000
Si      -1.08712944      -1.75707623       1.19955758       0.00000000
Si       1.38691431      -1.37292545      -1.39174617       0.00000000
Si       1.07453727       1.58496618       1.45652187       0.00000000
Si       2.67577911       2.66731124       0.04094183       0.00000000
Si      -2.53998567       2.84389484       0.01776330       0.00000000
Si       0.70721406      -3.53587907       1.27550863       0.00000000
Si       2.66634720      -2.76557384       0.07012193       0.00000000
Si      -2.69063559      -0.01925903      -2.76176248       0.00000000
Si       0.02466306       2.69578616      -2.75962398       0.00000000
