10
Lattice="16.28999089631971 0.0 0.0 0.0 16.28999089631971 0.0 0.0 0.0 34.49183129400761" Properties=species:S:1:pos:R:3:initial_magmoms:R:1 pbc="T T T"
Si       1.45603278      -1.13527128      -1.52416038       0.00000000
Si       1.56656043       0.34339320       1.85117762       0.00000000
Si      -1.03702140       1.72206477      -1.60311223       0.00000000
Si      -1.06893351      -2.23077052       0.90830839       0.00000000
Si       0.71022771       2.53873134       0.80190103       0.00000000
Si       0.83287512      -1.86757845       2.32254325       0.00000000
Si      -2.92687317      -0.74147193       1.40581885       0.00000000
Si      -2.15849016       0.12365739      -2.96291895       0.00000000
Si       3.09830913      -2.24645779      -0.16262908       0.00000000
Si       3.75375424       0.00057015       0.85205218       0.00000000
