10
Lattice="16.28999089631971 0.0 0.0 0.0 16.28999089631971 0.0 0.0 0.0 34.49183129400761" Properties=species:S:1:pos:R:3:initial_magmoms:R:1 pbc="T T T"
Si       1.95439275      -1.26911710      -0.13841580       0.00000000
Si      -0.48687552      -0.25402789       2.30377968       0.00000000
Si       0.73368531       2.21097165      -0.47136563       0.00000000
Si      -1.90180863      -0.36319207      -1.41423486       0.00000000
Si      -0.83287512       1.86757845      -2.32254325       0.00000000
Si       2.26543401      -0.37887934      -2.48517233       0.00000000
Si      -0.53074449      -2.59564438       2.45519891       0.00000000
Si       0.17451477       3.27878115       1.59252323       0.00000000
Si       1.64056590      -3.00732526       1.48601240       0.00000000
Si       2.92087912       1.86814860      -1.47049107       0.00000000
