10
Lattice="16.28999089631971 0.0 0.0 0.0 16.28999089631971 0.0 0.0 0.0 34.49183129400761" Properties=species:S:1:pos:R:3:initial_magmoms:R:1 pbc="T T T"
Si      -0.53616906       1.17354789       1.98545439       0.00000000
Si      -1.40255271       0.62975511      -1.81806544       0.00000000
Si      -0.64803249      -2.19886330       0.66262294       0.00000000
Si       2.30008677       0.32246055      -0.64427328       0.00000000
Si      -2.57509062      -1.50421860       1.96624243       0.00000000
Si      -2.06394300      -2.90305393      -1.10680899       0.00000000
Si       0.76743300       0.21093921       3.65920594       0.00000000
Si       3.59340200      -0.63250812       1.09266733       0.00000000
Si      -0.85628385       2.72864016      -2.68222427       0.00000000
Si       1.03087260      -3.30819438       1.91867817       0.00000000
