10
Lattice="16.28999089631971 0.0 0.0 0.0 16.28999089631971 0.0 0.0 0.0 34.49183129400761" Properties=species:S:1:pos:R:3:initial_magmoms:R:1 pbc="T T T"
Si       1.36376622      -0.92550006      -1.60428495       0.00000000
Si       0.37693431       0.54221265       2.21912741       0.00000000
Si      -0.36847980       2.02794210      -1.08897671       0.00000000
Si      -2.19563136      -1.17275131       0.34091745       0.00000000
Si      -2.35252035       2.31759459       0.13065513       0.00000000
Si      -1.39797522       2.26085652       2.23560555       0.00000000
Si      -0.39873033      -1.40415728       3.33687411       0.00000000
Si      -1.54492731      -2.82835844       1.84303754       0.00000000
Si       0.79548957      -0.74435526      -3.89764810       0.00000000
Si       3.66958314      -0.41280489      -1.66968150       0.00000000
