10
Lattice="16.28999089631971 0.0 0.0 0.0 16.28999089631971 0.0 0.0 0.0 34.49183129400761" Properties=species:S:1:pos:R:3:initial_magmoms:R:1 pbc="T T T"
Si       2.26123119       0.76134573       0.12693001       0.00000000
Si       0.11373678      -2.23021503       0.96063253       0.00000000
Si      -1.56706542       1.10698695       1.49525621       0.00000000
Si      -0.50652126       0.02964780      -2.39790794       0.00000000
Si       3.06606603      -0.47713410      -1.73700959       0.00000000
Si      -2.82576114      -0.86838732      -2.30553877       0.00000000
Si      -1.88335206      -3.30297180       0.34040007       0.00000000
Si       1.76246397       0.48547458      -3.41076114       0.00000000
Si       3.21256297       0.28308762       2.24448819       0.00000000
Si      -1.05023259       0.54208233       3.76930392       0.00000000
