10
Lattice="16.28999089631971 0.0 0.0 0.0 16.28999089631971 0.0 0.0 0.0 34.49183129400761" Properties=species:S:1:pos:R:3:initial_magmoms:R:1 pbc="T T T"
Si       0.95133178      -0.47825811       2.11755818       0.00000000
Si       0.80483484      -1.23847983      -1.86393960       0.00000000
Si      -2.26123119      -0.76134573      -0.12693001       0.00000000
Si       0.71552196       2.07862029      -1.01802697       0.00000000
Si       3.21474095      -0.13595634       1.54961537       0.00000000
Si      -0.49876722      -0.27587115      -3.53769115       0.00000000
Si      -2.14749441      -2.99156076       0.83370252       0.00000000
Si      -2.76775245      -0.73169793      -2.52483795       0.00000000
Si       0.13654278       1.96595865      -3.31780560       0.00000000
Si       0.05416425       3.95392509       0.31591086       0.00000000
