10
Lattice="16.28999089631971 0.0 0.0 0.0 16.28999089631971 0.0 0.0 0.0 34.49183129400761" Properties=species:S:1:pos:R:3:initial_magmoms:R:1 pbc="T T T"
Si      -1.06688097      -1.15996203       1.75141481       0.00000000
Si      -1.25726220       1.62168579      -1.23587750       0.00000000
Si       0.19530081      -1.35798327      -2.05361029       0.00000000
Si       1.68334344       1.43099505       1.48705547       0.00000000
Si       0.52722585       3.32951310      -1.60414699       0.00000000
Si      -2.19581055      -3.02708925       0.73745202       0.00000000
Si       2.55230091      -1.66068405      -2.49217417       0.00000000
Si      -2.60249040       2.95088463       0.18432445       0.00000000
Si      -2.54417220       0.14638194       3.08934335       0.00000000
Si       0.20329920      -2.56748319       3.12001350       0.00000000
