10
Lattice="16.28999089631971 0.0 0.0 0.0 16.28999089631971 0.0 0.0 0.0 34.49183129400761" Properties=species:S:1:pos:R:3:initial_magmoms:R:1 pbc="T T T"
Si       1.21305114      -1.30994406       1.59887663       0.00000000
Si       1.91077532       0.94262085      -1.30959490       0.00000000
Si      -1.49038839       1.40406768       1.60194641       0.00000000
Si      -1.68334344      -1.43099505      -1.48705547       0.00000000
Si       2.63161922      -2.64593583       0.05734270       0.00000000
Si      -2.75022441      -2.59095708       0.26435934       0.00000000
Si       2.54847995       2.79857313       0.17344917       0.00000000
Si      -1.15611759       1.89851805      -3.09120246       0.00000000
Si       2.56731282       0.06061509       2.98627683       0.00000000
Si      -2.94060564       2.67714747       0.23825936       0.00000000
