10
Lattice="16.28999089631971 0.0 0.0 0.0 16.28999089631971 0.0 0.0 0.0 34.49183129400761" Properties=species:S:1:pos:R:3:initial_magmoms:R:1 pbc="T T T"
Si      -0.13162320       1.02646548       2.12542232       0.00000000
Si      -1.95339906      -0.15672609      -1.32683251       0.00000000
Si       0.50220441      -2.28913596      -0.41221211       0.00000000
Si       0.58687983       1.79248644      -1.54150979       0.00000000
Si      -0.91921212      -1.97094339      -2.34772230       0.00000000
Si      -1.69192827       2.01955275      -2.07268428       0.00000000
Si       1.81048689       3.18458097      -0.13527704       0.00000000
Si       2.85632118      -2.35888974      -0.51782615       0.00000000
Si       0.45690192       3.27733623       1.82016945       0.00000000
Si       3.59616690      -0.28787688      -1.37184437       0.00000000
