10
Lattice="16.28999089631971 0.0 0.0 0.0 16.28999089631971 0.0 0.0 0.0 34.49183129400761" Properties=species:S:1:pos:R:3:initial_magmoms:R:1 pbc="T T T"
Si      -1.35565380       1.35278676      -1.35932383       0.00000000
Si       1.35711990       1.35689184       1.35594363       0.00000000
Si      -1.35816246      -1.35718506       1.35663347       0.00000000
Si       1.35829278      -1.35829278      -1.36087596       0.00000000
Si       0.02647125       2.69719152      -2.72316954       0.00000000
Si      -2.70370017      -0.00340461      -2.71939958       0.00000000
Si      -0.00021177       2.71479016       2.71340490       0.00000000
Si       2.71323034      -2.71497285      -0.00165561       0.00000000
Si       2.71475682       0.00011403       2.71357736       0.00000000
Si      -0.00057015      -2.71500543       2.71357736       0.00000000
