10
Lattice="16.28999089631971 0.0 0.0 0.0 16.28999089631971 0.0 0.0 0.0 34.49183129400761" Properties=species:S:1:pos:R:3:initial_magmoms:R:1 pbc="T T T"
Si      -1.34412048      -1.36914192       1.33880118       0.00000000
Si      -1.35513252       1.35690813      -1.35863399       0.00000000
Si       1.35866745      -1.35694071      -1.35818560       0.00000000
Si       1.36432008       1.35988920       1.36911952       0.00000000
Si      -2.75760378      -0.06991668       2.61386142       0.00000000
Si       2.71321353      -2.71308321      -0.00055187       0.00000000
Si      -2.71322982       2.71355562      -0.00089679       0.00000000
Si      -2.70850572      -2.71844262      -0.00141417       0.00000000
Si      -2.71349046      -0.00045612      -2.71561238       0.00000000
Si       0.00159642       2.71444807      -2.71564687       0.00000000
