10
Lattice="16.28999089631971 0.0 0.0 0.0 16.28999089631971 0.0 0.0 0.0 34.49183129400761" Properties=species:S:1:pos:R:3:initial_magmoms:R:1 pbc="T T T"
Si       0.74231901      -2.21506533       0.04063140       0.00000000
Si       2.06365045       1.15443972      -0.06677622       0.00000000
Si      -1.54217430       0.20559609      -1.78916127       0.00000000
Si      -1.26688959      -0.04870710       2.01339279       0.00000000
Si       1.74239748      -2.12907042       2.18305821       0.00000000
Si      -1.26139986      -3.34889820      -0.51413552       0.00000000
Si      -0.04328253       1.34338743       3.41962554       0.00000000
Si       3.34108619      -0.20083941      -1.52150451       0.00000000
Si      -1.96234227      -2.09650671      -2.36369203       0.00000000
Si      -3.63934890       0.71640162      -0.81504243       0.00000000
