10
Lattice="16.28999089631971 0.0 0.0 0.0 16.28999089631971 0.0 0.0 0.0 34.49183129400761" Properties=species:S:1:pos:R:3:initial_magmoms:R:1 pbc="T T T"
Si      -1.35761646       1.35700587      -1.35701288       0.00000000
Si       1.35706384       1.35651717       1.35815111       0.00000000
Si      -1.35725808      -1.35716877       1.35756475       0.00000000
Si       1.35743851      -1.35786924      -1.35673694       0.00000000
Si      -2.71460604      -0.00099369      -2.71381880       0.00000000
Si       2.71436945      -0.00096111      -2.71406025       0.00000000
Si      -0.00178226      -2.71445157      -2.71433618       0.00000000
Si       2.71454864       2.71432125       0.00041390       0.00000000
Si      -0.00148973       2.71482624      -2.71464661       0.00000000
Si      -2.71529022       2.71479366       0.00058636       0.00000000
