10
Lattice="16.28999089631971 0.0 0.0 0.0 16.28999089631971 0.0 0.0 0.0 34.49183129400761" Properties=species:S:1:pos:R:3:initial_magmoms:R:1 pbc="T T T"
Si      -1.35698958      -1.35638685      -1.35770271       0.00000000
Si       1.35853713       1.35902583      -1.35742678       0.00000000
Si      -1.36016613       1.36036161       1.36094495       0.00000000
Si       1.36171368      -1.36042677       1.35973773       0.00000000
Si      -2.71447438      -2.71419093       0.00003449       0.00000000
Si       0.00061902      -2.71376739      -2.71509500       0.00000000
Si      -2.71397264       0.00102627      -2.71509500       0.00000000
Si       2.71601541       0.00175932      -2.71506051       0.00000000
Si       2.71827972      -2.71326240      -0.00196604       0.00000000
Si       0.00070047       2.71648782      -2.71516399       0.00000000
