10
Lattice="16.28999089631971 0.0 0.0 0.0 16.28999089631971 0.0 0.0 0.0 34.49183129400761" Properties=species:S:1:pos:R:3:initial_magmoms:R:1 pbc="T T T"
Si      -1.35706384      -1.35651717      -1.35815111       0.00000000
Si       1.35610015      -1.35674523       1.35939281       0.00000000
Si       1.35748480       1.35780408      -1.35773721       0.00000000
Si      -1.36037857       1.36054080       1.35735780       0.00000000
Si      -2.71432192      -2.71368594      -0.00058636       0.00000000
Si       2.71447438       2.71419093      -0.00003449       0.00000000
Si       0.00037467      -2.71438641      -2.71488805       0.00000000
Si      -2.71468030       0.00048870      -2.71516399       0.00000000
Si       2.71509340       0.00042354      -2.71512949       0.00000000
Si       0.00050173       2.71521720      -2.71512949       0.00000000
