10
Lattice="16.28999089631971 0.0 0.0 0.0 16.28999089631971 0.0 0.0 0.0 34.49183129400761" Properties=species:S:1:pos:R:3:initial_magmoms:R:1 pbc="T T T"
Si      -2.17589114       0.94716576       0.10578651       0.00000000
Si       0.33420564      -0.49205574       2.35975996       0.00000000
Si       1.45626084       1.99436841      -0.01393471       0.00000000
Si      -1.74490335       0.25664895      -2.03274272       0.00000000
Si       3.01480659       0.23428278       0.05380729       0.00000000
Si       1.09221192      -2.93767344      -1.68361621       0.00000000
Si      -0.63443034      -2.62337418       2.56198568       0.00000000
Si       2.71482624      -0.72565434       2.50383242       0.00000000
Si       0.50246505       3.28948857      -1.88008179       0.00000000
Si      -0.64073457       1.78354323      -3.36002362       0.00000000
