10
Lattice="16.28999089631971 0.0 0.0 0.0 16.28999089631971 0.0 0.0 0.0 34.49183129400761" Properties=species:S:1:pos:R:3:initial_magmoms:R:1 pbc="T T T"
Si      -1.32296647      -1.32672276       1.41751158       0.00000000
Si       1.24166827      -1.45068966      -1.38588256       0.00000000
Si      -1.48495423       1.27193949      -1.38305422       0.00000000
Si       1.62349447       1.23468426       1.26950705       0.00000000
Si       2.58242161      -0.09127287      -2.75996890       0.00000000
Si      -0.13405711       2.62601316      -2.76200392       0.00000000
Si      -2.75254429      -2.64363894      -0.03011139       0.00000000
Si       2.67496510      -2.78146863       0.08195264       0.00000000
Si       2.72766325       2.76157854      -0.05777385       0.00000000
Si      -2.19920557      -0.06506226       3.24150962       0.00000000
