10
Lattice="16.28999089631971 0.0 0.0 0.0 16.28999089631971 0.0 0.0 0.0 34.49183129400761" Properties=species:S:1:pos:R:3:initial_magmoms:R:1 pbc="T T T"
Si      -1.35725185      -1.35530357       1.35601261       0.00000000
Si      -1.35663120       1.35731279      -1.35780619       0.00000000
Si       1.35773892      -1.35773078      -1.35780619       0.00000000
Si       1.35839052       1.35835046       1.35721983       0.00000000
Si      -2.71442618      -0.00010589       2.71164582       0.00000000
Si      -2.71337297       0.00061373      -2.71471559       0.00000000
Si      -2.71440321       2.71440173      -0.00020695       0.00000000
Si       0.00239463       2.71511849      -2.71433618       0.00000000
Si      -2.71446301      -2.71501358      -0.00017246       0.00000000
Si       2.71459818       0.00078078      -2.71516399       0.00000000
