10
Lattice="16.28999089631971 0.0 0.0 0.0 16.28999089631971 0.0 0.0 0.0 34.49183129400761" Properties=species:S:1:pos:R:3:initial_magmoms:R:1 pbc="T T T"
Si       0.72154600       1.90345948       1.11121740       0.00000000
Si      -1.99447334      -0.78770295       0.97783396       0.00000000
Si       1.82682576      -1.59247782      -0.40005825       0.00000000
Si      -0.57792752      -2.04402033       2.52706647       0.00000000
Si       2.17769607       0.66595223       2.52209275       0.00000000
Si       0.78188742      -3.38206464       1.09140183       0.00000000
Si       2.18051424       2.88560150      -0.48542558       0.00000000
Si       3.71182311      -0.61636473       0.94639119       0.00000000
Si       0.80532221      -0.69178743       3.90247040       0.00000000
Si      -3.29146685      -2.39212134      -0.32683205       0.00000000
