10
Lattice="16.28999089631971 0.0 0.0 0.0 16.28999089631971 0.0 0.0 0.0 34.49183129400761" Properties=species:S:1:pos:R:3:initial_magmoms:R:1 pbc="T T T"
Si      -1.35981494       1.33804431       1.43566464       0.00000000
Si       1.37798739      -1.36277253       1.44458079       0.00000000
Si      -0.63770463      -1.85595228      -1.48304407       0.00000000
Si       1.04493834       1.78958682      -1.49146008       0.00000000
Si      -0.78188742       3.38206464      -1.09140183       0.00000000
Si      -2.54847995      -2.79857313      -0.17344917       0.00000000
Si      -2.77636076       2.59436169      -0.11356787       0.00000000
Si       2.77794999      -2.60198541       0.00016556       0.00000000
Si       0.02343479       2.69027721       2.81106858       0.00000000
Si      -2.69502479      -0.02287116       2.81406937       0.00000000
