10
Lattice="16.28999089631971 0.0 0.0 0.0 16.28999089631971 0.0 0.0 0.0 34.49183129400761" Properties=species:S:1:pos:R:3:initial_magmoms:R:1 pbc="T T T"
Si       1.35337972      -1.35544203       1.36349734       0.00000000
Si      -1.36090549       1.36088575       1.36291098       0.00000000
Si       1.37237386       1.35773966      -1.38037766       0.00000000
Si      -1.38324973      -1.35223290      -1.37540393       0.00000000
Si      -0.08377621       2.59524691      -2.79125301       0.00000000
Si       2.70673663      -2.71386513       0.00213849       0.00000000
Si       2.71142815       2.71451088       0.00413902       0.00000000
Si       2.71020640       0.00254124       2.71982038       0.00000000
Si      -2.71845958      -2.71314837       0.00300079       0.00000000
Si      -0.00446672      -2.71292031       2.71988937       0.00000000
