10
Lattice="16.28999089631971 0.0 0.0 0.0 16.28999089631971 0.0 0.0 0.0 34.49183129400761" Properties=species:S:1:pos:R:3:initial_magmoms:R:1 pbc="T T T"
Si       1.35682668       1.35798327       1.35632304       0.00000000
Si      -1.35784643      -1.35747828       1.35639202       0.00000000
Si      -1.35337972       1.35544203      -1.36349734       0.00000000
Si       1.35335691      -1.35842310      -1.36135885       0.00000000
Si       0.00117288      -2.69760771      -2.72998513       0.00000000
Si       2.71414206      -2.71438641      -0.00117272       0.00000000
Si      -0.00086337      -2.71489140       2.71378431       0.00000000
Si       2.71466334       0.00052128       2.71406025       0.00000000
Si      -2.71537525       0.00070047       2.71395677       0.00000000
Si      -0.00091224       2.71571405       2.71412923       0.00000000
