10
Lattice="16.28999089631971 0.0 0.0 0.0 16.28999089631971 0.0 0.0 0.0 34.49183129400761" Properties=species:S:1:pos:R:3:initial_magmoms:R:1 pbc="T T T"
Si       2.06772228       0.45317151       0.99822865       0.00000000
Si      -1.27743574       1.35527913       1.45472829       0.00000000
Si      -0.64920374      -2.26727478       0.28252275       0.00000000
Si      -0.07681224       0.79319268      -2.23803822       0.00000000
Si      -2.59876718      -2.01422592       1.56213591       0.00000000
Si      -3.34108619       0.20083941       1.52150451       0.00000000
Si       1.82614158      -0.27165204       3.19366943       0.00000000
Si       0.04463460       1.25872830       3.50682094       0.00000000
Si      -0.64039085      -3.16832355      -1.86835456       0.00000000
Si       0.99426015       2.88333000      -2.28901717       0.00000000
