10
Lattice="16.28999089631971 0.0 0.0 0.0 16.28999089631971 0.0 0.0 0.0 34.49183129400761" Properties=species:S:1:pos:R:3:initial_magmoms:R:1 pbc="T T T"
Si       1.84404429      -0.62042094      -1.22811683       0.00000000
Si      -0.24158070      -0.72482355       2.19544078       0.00000000
Si      -2.06772228      -0.45317151      -0.99822865       0.00000000
Si       0.22055031       2.33429184       0.32480976       0.00000000
Si      -2.02308768       0.80555679       2.50859229       0.00000000
Si      -3.34515802       0.90210762       0.45649964       0.00000000
Si       2.46032757       1.45367073      -2.27632417       0.00000000
Si      -0.50666787       2.61832428       2.53387482       0.00000000
Si       2.42286057       2.79402822      -0.31798037       0.00000000
Si       1.29497355      -2.73018771      -2.23452005       0.00000000
