10
Lattice="16.28999089631971 0.0 0.0 0.0 16.28999089631971 0.0 0.0 0.0 34.40785480372833" Properties=species:S:1:pos:R:3:initial_magmoms:R:1 pbc="T T T"
Si       1.93174965      -0.63607563       1.15307667       0.00000000
Si       0.46529127       2.32033524       0.17682206       0.00000000
Si       0.89184492      -0.55623834      -2.17784639       0.00000000
Si      -2.15152523      -0.47530962       1.04985305       0.00000000
Si      -2.13780905      -2.61884556      -0.00192684       0.00000000
Si       2.76470622       0.84867642      -2.13191188       0.00000000
Si       1.84656924       0.81968022       2.97817354       0.00000000
Si      -1.64128364       3.39655364      -0.01679104       0.00000000
Si      -2.52308384       0.39944709      -2.86149644       0.00000000
Si       1.90723320       2.95861328      -1.57271511       0.00000000
