10
Lattice="16.28999089631971 0.0 0.0 0.0 16.28999089631971 0.0 0.0 0.0 34.40785480372833" Properties=species:S:1:pos:R:3:initial_magmoms:R:1 pbc="T T T"
Si      -1.69766465       1.00608669      -1.34758439       0.00000000
Si       1.00707549      -1.70302176      -1.34631130       0.00000000
Si      -1.83932249      -1.18227933       1.16890430       0.00000000
Si       2.06497416       2.03533776      -0.00030967       0.00000000
Si       1.46708229       0.05766660       3.05844711       0.00000000
Si      -0.67422911      -1.09410156       3.23086496       0.00000000
Si      -0.36575730       2.35480095      -2.71718981       0.00000000
Si       2.36210376      -0.37307358      -2.71935751       0.00000000
Si      -3.04786130       2.36638314       0.10263869       0.00000000
Si       2.47556361      -2.99403489      -0.02787038       0.00000000
