10
Lattice="16.28999089631971 0.0 0.0 0.0 16.28999089631971 0.0 0.0 0.0 34.40785480372833" Properties=species:S:1:pos:R:3:initial_magmoms:R:1 pbc="T T T"
Si      -0.15400566       2.02808382       1.24897142       0.00000000
Si       0.93120156      -1.06084373       1.92553345       0.00000000
Si      -2.06334027      -0.99603967      -0.73109851       0.00000000
Si       1.14833097       0.60510345      -2.04135035       0.00000000
Si       2.99473731       0.12606179       1.92907746       0.00000000
Si       0.08149887       2.65594929      -2.57745944       0.00000000
Si       0.29230776       3.69815091      -0.40532476       0.00000000
Si      -3.37913244      -1.24030009       1.20792283       0.00000000
Si       1.85393232       1.99244130       2.69207206       0.00000000
Si      -2.28881016       2.06284668       2.34097412       0.00000000
