10
Lattice="16.28999089631971 0.0 0.0 0.0 16.28999089631971 0.0 0.0 0.0 34.40785480372833" Properties=species:S:1:pos:R:3:initial_magmoms:R:1 pbc="T T T"
Si       1.88714763      -0.93590937       1.07204613       0.00000000
Si      -0.85455711      -1.82040750      -1.25843358       0.00000000
Si      -1.72509471       0.42508755       1.62738922       0.00000000
Si       0.31957722       1.73415195      -1.66805933       0.00000000
Si      -1.72597437       1.39051440      -2.84064526       0.00000000
Si      -1.25664318      -0.82585413      -3.31918998       0.00000000
Si      -3.74902947       0.05927931       0.30385594       0.00000000
Si       3.53108556      -1.14569199      -0.66503539       0.00000000
Si      -3.09228183      -2.11390443      -0.44651098       0.00000000
Si       1.32525666      -3.09847692       1.96513691       0.00000000
