10
Lattice="16.28999089631971 0.0 0.0 0.0 16.28999089631971 0.0 0.0 0.0 34.40785480372833" Properties=species:S:1:pos:R:3:initial_magmoms:R:1 pbc="T T T"
Si       1.11459438      -0.99529198       1.85045547       0.00000000
Si      -1.72162494      -1.44209410      -0.79289505       0.00000000
Si      -1.34789976       1.89390961       0.54044448       0.00000000
Si       1.47002589      -0.23522744      -1.93575259       0.00000000
Si      -1.74998583       2.88846298      -1.52031191       0.00000000
Si       1.71804114      -2.54232070      -2.12124543       0.00000000
Si      -0.48930273      -3.32409409      -1.69513832       0.00000000
Si      -0.37739043      -2.66902432       2.70163745       0.00000000
Si       2.39275665       2.81805760      -1.16921397       0.00000000
Si       0.38481867       2.85370012      -2.61231461       0.00000000
