10
Lattice="16.28999089631971 0.0 0.0 0.0 16.28999089631971 0.0 0.0 0.0 34.40785480372833" Properties=species:S:1:pos:R:3:initial_magmoms:R:1 pbc="T T T"
Si       2.04840234      -1.18506492       0.28775305       0.00000000
Si       0.59636061       0.57664971       2.28175817       0.00000000
Si      -2.14131140      -1.15176816       0.17241786       0.00000000
Si      -1.67259269       1.36575360       2.54363650       0.00000000
Si      -1.46708229      -0.05766660      -3.05844711       0.00000000
Si       2.20286412       2.35354662       1.69754687       0.00000000
Si       0.59789187       1.97767116      -3.05875678       0.00000000
Si      -1.43991871       3.38732631      -0.79392729       0.00000000
Si      -3.60447920       0.77292792       0.95154976       0.00000000
Si       1.50443037      -3.34154231       1.29986067       0.00000000
