10
Lattice="16.28999089631971 0.0 0.0 0.0 16.28999089631971 0.0 0.0 0.0 34.40785480372833" Properties=species:S:1:pos:R:3:initial_magmoms:R:1 pbc="T T T"
Si       0.46933119      -2.21636853      -0.47854471       0.00000000
Si      -0.38577978       0.84528810      -2.14884055       0.00000000
Si      -1.91166408       0.32669595       1.36767858       0.00000000
Si       2.04555159       0.34363755       1.17258594       0.00000000
Si       1.72597437      -1.39051440       2.84064526       0.00000000
Si      -1.59915672       2.62922229       1.91903036       0.00000000
Si       0.87141726      -3.21092190       1.58221168       0.00000000
Si       1.68161670       1.33721352      -3.05018922       0.00000000
Si       2.60413569      -2.25113139      -1.57054741       0.00000000
Si       2.00380032       2.44584576       2.16642297       0.00000000
