10
Lattice="16.28999089631971 0.0 0.0 0.0 16.28999089631971 0.0 0.0 0.0 34.40785480372833" Properties=species:S:1:pos:R:3:initial_magmoms:R:1 pbc="T T T"
Si       1.35624024      -1.35456237       1.35329609       0.00000000
Si      -1.35907470      -1.35498591      -1.35770030       0.00000000
Si       1.35550719       1.35982404      -1.35763149       0.00000000
Si      -1.36115982       1.36200690       1.36151958       0.00000000
Si       2.68074756       0.00509877       2.71491889       0.00000000
Si       2.71189404      -2.71207323      -0.00058493       0.00000000
Si       0.00444717      -2.70736542       2.71756830       0.00000000
Si      -0.00138465      -2.71241532      -2.71512534       0.00000000
Si       2.71357191       0.00185706      -2.71478126       0.00000000
Si      -2.71661814      -2.71311579       0.00141072       0.00000000
