10
Lattice="16.28999089631971 0.0 0.0 0.0 16.28999089631971 0.0 0.0 0.0 34.40785480372833" Properties=species:S:1:pos:R:3:initial_magmoms:R:1 pbc="T T T"
Si      -2.26895330       0.78910389       0.26187833       0.00000000
Si      -0.59636061      -0.57664971      -2.28175817       0.00000000
Si       1.60650351       1.77689691      -0.58421129       0.00000000
Si       0.37820493      -1.67487264       1.93155482       0.00000000
Si       1.69544691       0.58823190       2.31079841       0.00000000
Si       1.45204173      -1.76171463      -1.99400512       0.00000000
Si       3.03652116      -0.16377966      -0.82496319       0.00000000
Si      -0.70120305      -3.45425052       0.75012606       0.00000000
Si       1.97229546       2.76389172       1.49932311       0.00000000
Si      -2.21783626       2.95476165      -0.70353780       0.00000000
