10
Lattice="16.28999089631971 0.0 0.0 0.0 16.28999089631971 0.0 0.0 0.0 34.40785480372833" Properties=species:S:1:pos:R:3:initial_magmoms:R:1 pbc="T T T"
Si       0.74220498      -2.21151411      -0.06795555       0.00000000
Si      -2.08979523      -0.14763627       1.04792621       0.00000000
Si       1.34403903       0.97920819       1.74152014       0.00000000
Si      -0.05945850       0.37849815      -2.42816367       0.00000000
Si      -1.22435640      -3.06805860      -1.04813266       0.00000000
Si       0.68290938       2.61850347      -2.27026594       0.00000000
Si      -3.07669230      -1.85549616      -0.25362044       0.00000000
Si       3.40399098       1.22355819       0.60712694       0.00000000
Si       2.70453096      -2.16458262      -1.33726202       0.00000000
Si       1.23942465      -2.83877685       2.13779562       0.00000000
