10
Lattice="16.28999089631971 0.0 0.0 0.0 16.28999089631971 0.0 0.0 0.0 34.40785480372833" Properties=species:S:1:pos:R:3:initial_magmoms:R:1 pbc="T T T"
Si      -2.30933556      -0.03743442      -0.27467806       0.00000000
Si       0.73761120      -0.50223699      -2.16050482       0.00000000
Si       0.58194396       2.21030865       0.58018557       0.00000000
Si       0.53711388      -1.43710380       1.87516032       0.00000000
Si       2.86560648      -0.85120137      -1.31565388       0.00000000
Si      -1.32737436      -1.08942633       3.22019852       0.00000000
Si      -3.06584316      -1.25372727       1.62776770       0.00000000
Si       0.57886515      -3.53931201       0.88132329       0.00000000
Si      -0.68476644       2.71780731       2.46962516       0.00000000
Si      -3.16571715       2.15228367      -0.28854443       0.00000000
