10
Lattice="16.28999089631971 0.0 0.0 0.0 16.28999089631971 0.0 0.0 0.0 34.40785480372833" Properties=species:S:1:pos:R:3:initial_magmoms:R:1 pbc="T T T"
Si      -1.35376416       1.35545194       1.35866372       0.00000000
Si       1.35972630      -1.35646830       1.35859491       0.00000000
Si      -1.36146933      -1.35413883      -1.36022928       0.00000000
Si       1.38326535       1.34852352      -1.36053551       0.00000000
Si       0.04075758       2.66079461      -2.71302990       0.00000000
Si      -2.71373481      -2.71270854       0.00141072       0.00000000
Si       2.71495656      -2.71401174      -0.00271822       0.00000000
Si      -2.71292031      -0.00083079       2.71694896       0.00000000
Si       2.71580364       2.71479596       0.00182362       0.00000000
Si       0.00180819       2.71481062       2.71646725       0.00000000
