10
Lattice="16.28999089631971 0.0 0.0 0.0 16.28999089631971 0.0 0.0 0.0 34.40785480372833" Properties=species:S:1:pos:R:3:initial_magmoms:R:1 pbc="T T T"
Si      -1.35648459       1.35567009       1.35835405       0.00000000
Si       1.34169327       1.35886293      -1.37321481       0.00000000
Si       1.35816246      -1.36031274       1.35907662       0.00000000
Si      -1.37197638      -1.34912151      -1.37583669       0.00000000
Si       2.60747514      -0.13315446      -2.66420513       0.00000000
Si      -0.00013032       2.71349046       2.71605435       0.00000000
Si      -2.71656927       2.71438641      -0.00381927       0.00000000
Si      -2.71484253      -0.00125433       2.71657047       0.00000000
Si       2.71634121       2.71508688      -0.00147954       0.00000000
Si       2.71480995      -0.00215028       2.71663929       0.00000000
