10
Lattice="16.28999089631971 0.0 0.0 0.0 16.28999089631971 0.0 0.0 0.0 34.40785480372833" Properties=species:S:1:pos:R:3:initial_magmoms:R:1 pbc="T T T"
Si      -1.46310264      -1.30478013      -1.38628090       0.00000000
Si      -1.29438711       1.37078721       1.52255875       0.00000000
Si       1.40849856      -1.33517727       1.54235704       0.00000000
Si       1.28550906       1.46557872      -1.63553154       0.00000000
Si       0.44621568      -2.19209643      -2.69047695       0.00000000
Si      -2.61058653      -2.75651724       0.20495738       0.00000000
Si       2.72816775       2.66523948       0.03447325       0.00000000
Si       1.77018543      -0.15602562      -3.39518462       0.00000000
Si      -2.58712893       2.89698102       0.01657771       0.00000000
Si       2.72318301      -2.77918803       0.22995126       0.00000000
