10
Lattice="16.28999089631971 0.0 0.0 0.0 16.28999089631971 0.0 0.0 0.0 34.40785480372833" Properties=species:S:1:pos:R:3:initial_magmoms:R:1 pbc="T T T"
Si       1.35690813      -1.35652694      -1.35708096       0.00000000
Si      -1.35824391      -1.35558864       1.35711537       0.00000000
Si       1.35651717       1.35904212       1.35856050       0.00000000
Si      -1.35819504       1.35887922      -1.35732181       0.00000000
Si       0.00060273      -2.71253805      -2.71426514       0.00000000
Si       2.71438641      -2.71361325      -0.00017204       0.00000000
Si      -2.71526607      -2.71430458       0.00034408       0.00000000
Si       2.71480995      -0.00017919      -2.71481567       0.00000000
Si      -0.00039096      -2.71240993       2.71729304       0.00000000
Si      -2.71428867      -0.00070047      -2.71550383       0.00000000
