10
Lattice="16.28999089631971 0.0 0.0 0.0 16.28999089631971 0.0 0.0 0.0 34.40785480372833" Properties=species:S:1:pos:R:3:initial_magmoms:R:1 pbc="T T T"
Si      -1.35785295       1.35682129      -1.36017767       0.00000000
Si       1.35863487      -1.35859858      -1.36024648       0.00000000
Si       1.36337526       1.35029226       1.37703753       0.00000000
Si      -1.36503684      -1.36605940       1.38773838       0.00000000
Si      -2.71524978       2.70802792       0.00000000       0.00000000
Si       2.71344159       2.71003159       0.00058493       0.00000000
Si       2.71164969      -2.71669588      -0.00113546       0.00000000
Si       0.00039096       2.71240993      -2.71729304       0.00000000
Si      -2.71611315      -2.71469221       0.00024086       0.00000000
Si      -2.71487511      -0.00189465      -2.71694896       0.00000000
