10
Lattice="16.28999089631971 0.0 0.0 0.0 16.28999089631971 0.0 0.0 0.0 34.40785480372833" Properties=species:S:1:pos:R:3:initial_magmoms:R:1 pbc="T T T"
Si       2.23736634       0.73086714       0.02298446       0.00000000
Si      -1.06683210       2.05084584      -0.53610909       0.00000000
Si       0.34456608      -1.94959439      -1.35074991       0.00000000
Si      -1.14833097      -0.60510345       2.04135035       0.00000000
Si       2.97263178      -0.22583479       1.96073270       0.00000000
Si      -0.85602321       3.09304746       1.63602559       0.00000000
Si      -3.15807714       1.42115589      -1.39847363       0.00000000
Si       3.29095467      -0.34386887      -1.76116703       0.00000000
Si      -1.30233663       1.42298037       3.29032177       0.00000000
Si      -3.21167124      -1.60114312       1.31025184       0.00000000
