10
Lattice="16.28999089631971 0.0 0.0 0.0 16.28999089631971 0.0 0.0 0.0 34.40785480372833" Properties=species:S:1:pos:R:3:initial_magmoms:R:1 pbc="T T T"
Si      -1.14080499       1.86637951       0.76299461       0.00000000
Si       1.12622544       0.25320687      -2.00969511       0.00000000
Si      -2.06353575      -1.18690553      -0.00354401       0.00000000
Si       1.99078461      -0.83702093       1.03743181       0.00000000
Si       1.05285528      -0.26237651       3.13569278       0.00000000
Si       1.12578561      -2.09819014      -2.38800968       0.00000000
Si       1.75726746      -2.92912675      -0.08285416       0.00000000
Si      -0.49581873       1.61694703       3.06605125       0.00000000
Si      -2.99473731      -0.12606179      -1.92907746       0.00000000
Si       0.03311757       3.71970910       0.01871788       0.00000000
