10
Lattice="16.28999089631971 0.0 0.0 0.0 16.28999089631971 0.0 0.0 0.0 34.40785480372833" Properties=species:S:1:pos:R:3:initial_magmoms:R:1 pbc="T T T"
Si       2.28521007      -0.45761868       0.23462729       0.00000000
Si      -0.48467637       1.62160434       1.75965309       0.00000000
Si      -1.32396975      -2.03607081       0.70470767       0.00000000
Si       0.57060612       0.74758068      -2.61052540       0.00000000
Si      -2.41857630      -0.85877622      -1.60292522       0.00000000
Si      -0.77463837      -1.06855884      -3.34000674       0.00000000
Si       2.52187119      -1.94763240      -1.82113996       0.00000000
Si      -1.31900130       3.44235393       0.33017796       0.00000000
Si       2.60685612      -1.57038858       2.31732803       0.00000000
Si      -1.77018543       0.15602562       3.39518462       0.00000000
