10
Lattice="16.28999089631971 0.0 0.0 0.0 16.28999089631971 0.0 0.0 0.0 34.40785480372833" Properties=species:S:1:pos:R:3:initial_magmoms:R:1 pbc="T T T"
Si       1.32450732       1.35966114       1.36162280       0.00000000
Si      -1.35624024       1.35456237      -1.35329609       0.00000000
Si       1.35565380      -1.35751086      -1.35388103       0.00000000
Si      -1.35179307      -1.35280305       1.36427221       0.00000000
Si      -0.18697662       2.59991658       2.75283637       0.00000000
Si       2.59957449       0.00874773       2.77977774       0.00000000
Si       2.71427238      -0.00094482      -2.71075554       0.00000000
Si      -2.71292031      -2.71226871       0.00681276       0.00000000
Si      -0.00073305       2.71438641      -2.71092758       0.00000000
Si      -0.00032580      -2.71513575      -2.71096199       0.00000000
