10
Lattice="16.28999089631971 0.0 0.0 0.0 16.28999089631971 0.0 0.0 0.0 34.40785480372833" Properties=species:S:1:pos:R:3:initial_magmoms:R:1 pbc="T T T"
Si      -2.04064830       0.65783907      -0.90509913       0.00000000
Si       1.84031388      -0.27344394      -1.40717882       0.00000000
Si       0.05401764       1.90596258       1.43890288       0.00000000
Si      -0.00387702      -2.20574745       0.96558817       0.00000000
Si      -1.06789095       2.78462889      -1.15847871       0.00000000
Si       3.35137428       0.21263337       0.47100939       0.00000000
Si       2.27497995       1.58791662       2.01609497       0.00000000
Si       0.89099784      -2.03708079      -2.85702341       0.00000000
Si      -1.04949954       1.03944861       3.37813066       0.00000000
Si      -2.66611914      -0.92963772      -2.50031698       0.00000000
