10
Lattice="16.28999089631971 0.0 0.0 0.0 16.28999089631971 0.0 0.0 0.0 34.40785480372833" Properties=species:S:1:pos:R:3:initial_magmoms:R:1 pbc="T T T"
Si      -1.35694071      -1.35754344       1.35735622       0.00000000
Si      -1.35733167       1.35736425      -1.35749385       0.00000000
Si       1.35762489      -1.35777150      -1.35739063       0.00000000
Si       1.35881406       1.35791811       1.35711537       0.00000000
Si       2.71298547       0.00009774      -2.71491889       0.00000000
Si       2.71182888      -0.00017919       2.71622639       0.00000000
Si      -2.71469592       2.71462204       0.00041289       0.00000000
Si       2.71500543      -2.71521720       0.00024086       0.00000000
Si       2.71495656       2.71531337      -0.00010322       0.00000000
Si      -2.71487511       0.00133578      -2.71543501       0.00000000
