10
Lattice="16.28999089631971 0.0 0.0 0.0 16.28999089631971 0.0 0.0 0.0 34.40785480372833" Properties=species:S:1:pos:R:3:initial_magmoms:R:1 pbc="T T T"
Si      -0.97275735      -2.12678982       0.25337958       0.00000000
Si       2.00235051       0.57963078      -1.09857460       0.00000000
Si      -1.64638143       1.74917133      -0.32759737       0.00000000
Si       1.12190859      -0.87866631       2.59738159       0.00000000
Si       0.78089373       1.60194231       2.51002000       0.00000000
Si       1.06789095      -2.78462889       1.15847871       0.00000000
Si      -1.47720978       2.29778595       2.15001042       0.00000000
Si      -2.47164912      -1.58917095       1.97002283       0.00000000
Si       1.05093306       1.48599009      -3.18506808       0.00000000
Si      -0.77118489       2.95559474      -2.43191413       0.00000000
