10
Lattice="16.28999089631971 0.0 0.0 0.0 16.28999089631971 0.0 0.0 0.0 34.40785480372833" Properties=species:S:1:pos:R:3:initial_magmoms:R:1 pbc="T T T"
Si      -2.25810351       0.69584364      -0.36000959       0.00000000
Si       0.34101486      -2.48060862       0.08736159       0.00000000
Si       0.68828508       2.30156916      -0.77042671       0.00000000
Si       0.36952236       0.06820623       2.57315845       0.00000000
Si       2.57543271       0.56452995       1.50568857       0.00000000
Si      -0.78089373      -1.60194231      -2.51002000       0.00000000
Si      -1.70701281      -1.29220425       2.57876694       0.00000000
Si      -3.21965334      -1.15742079       0.71523648       0.00000000
Si      -0.36530325       3.37630517       1.01372478       0.00000000
Si       2.90424636       2.33197119      -0.09266040       0.00000000
