10
Lattice="16.28999089631971 0.0 0.0 0.0 16.28999089631971 0.0 0.0 0.0 34.40785480372833" Properties=species:S:1:pos:R:3:initial_magmoms:R:1 pbc="T T T"
Si      -2.29920318      -0.54542178      -0.35557097       0.00000000
Si       1.64638143      -1.74917133       0.32759737       0.00000000
Si       0.16917165       0.54861462       2.47760779       0.00000000
Si       0.87519654       1.20642341      -2.10431676       0.00000000
Si       2.42727516      -0.14722902       2.83761737       0.00000000
Si      -0.79237818      -1.30464981       3.55285385       0.00000000
Si       3.64873194      -1.16954055      -0.77097723       0.00000000
Si       2.69731449      -0.26318124      -2.85747071       0.00000000
Si       0.67362408      -3.87596115       0.58097695       0.00000000
Si      -2.87599950       0.10955025      -2.78937753       0.00000000
