10
Lattice="16.28999089631971 0.0 0.0 0.0 16.28999089631971 0.0 0.0 0.0 34.40785480372833" Properties=species:S:1:pos:R:3:initial_magmoms:R:1 pbc="T T T"
Si       0.96154983       1.85326443      -1.07524606       0.00000000
Si      -2.24495748      -0.00702099       0.78443071       0.00000000
Si      -0.03288951      -2.03369247      -1.25523365       0.00000000
Si       1.51264053      -0.13478346       1.86353046       0.00000000
Si       3.21965334       1.15742079      -0.71523648       0.00000000
Si       0.55669446      -3.41347176       0.55551513       0.00000000
Si       2.45715102      -2.18970180       1.31135290       0.00000000
Si      -2.59468749       2.20171569       1.58575569       0.00000000
Si      -2.16438714      -2.01852648      -2.32187775       0.00000000
Si      -3.59451882      -0.56752731      -1.11257861       0.00000000
