10
Lattice="16.28999089631971 0.0 0.0 0.0 16.28999089631971 0.0 0.0 0.0 34.40785480372833" Properties=species:S:1:pos:R:3:initial_magmoms:R:1 pbc="T T T"
Si      -1.45608165       1.22808681      -1.32503003       0.00000000
Si       1.20820554      -1.35027158      -1.46118542       0.00000000
Si      -1.34702010      -1.35498591       1.34261589       0.00000000
Si       1.37176202       1.35733167       1.33828050       0.00000000
Si       0.26202858       2.25911349      -2.58524594       0.00000000
Si       2.03956406       0.49067109      -2.74591492       0.00000000
Si      -0.62879400      -2.01120901      -2.92521435       0.00000000
Si      -2.46699018      -0.37911717      -2.65687522       0.00000000
Si      -2.70539433       0.00092853       2.69825172       0.00000000
Si       0.00736831      -2.71268733       2.69777001       0.00000000
