10
Lattice="16.28999089631971 0.0 0.0 0.0 16.28999089631971 0.0 0.0 0.0 34.40785480372833" Properties=species:S:1:pos:R:3:initial_magmoms:R:1 pbc="T T T"
Si       1.01090853       1.60720398       1.33184519       0.00000000
Si      -1.65385854      -1.05277383       1.30780785       0.00000000
Si      -0.32164605       1.11276990      -2.08270074       0.00000000
Si       1.83819618      -1.63209184      -0.26833914       0.00000000
Si       0.76828527      -1.98589435      -2.59534366       0.00000000
Si      -0.22511151      -2.35476267       2.63138586       0.00000000
Si       2.46699018       0.37911717       2.65687522       0.00000000
Si      -2.88846135      -2.21073398      -0.30832108       0.00000000
Si       0.95382837       3.24473994      -1.41033647       0.00000000
Si       2.72901876       2.63823066       0.07162928       0.00000000
