10
Lattice="16.28999089631971 0.0 0.0 0.0 16.28999089631971 0.0 0.0 0.0 34.40785480372833" Properties=species:S:1:pos:R:3:initial_magmoms:R:1 pbc="T T T"
Si       1.04153994      -0.73888182      -1.96627237       0.00000000
Si      -1.66790052      -1.18252368       1.22467946       0.00000000
Si      -1.46562759       1.82651625      -0.55018191       0.00000000
Si       1.79304912       0.61484976       1.54594578       0.00000000
Si      -0.49236525       3.64083129       0.63981442       0.00000000
Si       1.03906418       2.82005964       2.27264008       0.00000000
Si       1.25457013       1.13093325      -3.40321400       0.00000000
Si      -1.90456164       0.30749004       3.28044671       0.00000000
Si      -0.43409592      -2.02651184      -3.27394362       0.00000000
Si      -3.61916559       1.51268940       0.43529401       0.00000000
