10
Lattice="16.28999089631971 0.0 0.0 0.0 16.28999089631971 0.0 0.0 0.0 34.40785480372833" Properties=species:S:1:pos:R:3:initial_magmoms:R:1 pbc="T T T"
Si       1.66790052       1.18252368      -1.22467946       0.00000000
Si       0.85327020      -1.60865053       1.54312433       0.00000000
Si      -1.74783555      -1.00024998      -1.44922525       0.00000000
Si      -0.23666112       1.49001372       2.05576725       0.00000000
Si      -1.95126507       2.69521308      -0.78938545       0.00000000
Si       0.20227293       3.00903993      -1.77486137       0.00000000
Si      -2.52187119       1.94763240       1.82113996       0.00000000
Si      -3.29650956       0.87907356      -1.51886678       0.00000000
Si      -1.06117947      -2.88843596       2.33175281       0.00000000
Si       3.46094964       1.79737344       0.32126632       0.00000000
