10
Lattice="16.28999089631971 0.0 0.0 0.0 16.28999089631971 0.0 0.0 0.0 34.40785480372833" Properties=species:S:1:pos:R:3:initial_magmoms:R:1 pbc="T T T"
Si       1.26578187      -1.49201739      -1.29099032       0.00000000
Si      -1.34169327      -1.35886293       1.37321481       0.00000000
Si       1.37464794       1.35622395       1.37173527       0.00000000
Si      -1.39400046       1.29243231      -1.51050567       0.00000000
Si       0.13185126       2.26522224      -3.06256026       0.00000000
Si      -2.69868285       2.72225448      -0.01895186       0.00000000
Si      -2.71366965      -2.70798444      -0.00262188       0.00000000
Si      -2.69817786      -0.00319284       2.73156886       0.00000000
Si       2.71103067       2.72412783      -0.00954474       0.00000000
Si       2.72186352      -2.72010420       0.03403971       0.00000000
