10
Lattice="16.28999089631971 0.0 0.0 0.0 16.28999089631971 0.0 0.0 0.0 34.40785480372833" Properties=species:S:1:pos:R:3:initial_magmoms:R:1 pbc="T T T"
Si      -1.35935163       1.35479043       1.36055615       0.00000000
Si       1.35597097      -1.36085031       1.36148517       0.00000000
Si       1.33638273       1.36790388      -1.38128002       0.00000000
Si      -1.37464794      -1.35622395      -1.37173527       0.00000000
Si       2.64995361      -0.13160691      -2.60799298       0.00000000
Si      -2.71544526       2.71005327      -0.00230533       0.00000000
Si       2.71568376       2.71290402       0.00055053       0.00000000
Si      -0.00100998       2.71305063       2.71715540       0.00000000
Si      -2.71634121      -2.71508688       0.00147954       0.00000000
Si       2.71417531      -0.00206883       2.71739626       0.00000000
