10
Lattice="16.28999089631971 0.0 0.0 0.0 16.28999089631971 0.0 0.0 0.0 34.40785480372833" Properties=species:S:1:pos:R:3:initial_magmoms:R:1 pbc="T T T"
Si       1.35711990       1.35638685      -1.35697774       0.00000000
Si      -1.35635427      -1.35782037      -1.35770030       0.00000000
Si      -1.35751086       1.35700587       1.35773471       0.00000000
Si       1.35822762      -1.35702216       1.35742504       0.00000000
Si       2.71603170      -0.00197109       2.71264797       0.00000000
Si      -2.71445157       2.71437012       0.00041289       0.00000000
Si       0.00037467       2.71419093       2.71502212       0.00000000
Si      -2.71471221      -2.71474479       0.00051612       0.00000000
Si       0.00013032      -2.71349046      -2.71605435       0.00000000
Si       2.71546155       2.71464705      -0.00037849       0.00000000
