10
Lattice="16.28999089631971 0.0 0.0 0.0 16.28999089631971 0.0 0.0 0.0 34.40785480372833" Properties=species:S:1:pos:R:3:initial_magmoms:R:1 pbc="T T T"
Si      -2.01241773       0.84336588       0.86735369       0.00000000
Si      -0.41777334      -2.19931290       0.75979467       0.00000000
Si       0.38306588      -0.38519334      -2.34544714       0.00000000
Si       1.65541653       1.36704051       1.18177284       0.00000000
Si      -1.52190954      -0.13398525       3.06519105       0.00000000
Si       1.68814314      -3.07806066       1.26352595       0.00000000
Si       0.43418293       1.78046442      -3.31086327       0.00000000
Si      -1.47012363      -3.50591588      -0.81615477       0.00000000
Si       2.65201919      -1.17429723      -2.60732547       0.00000000
Si       3.48767990      -0.00070047       1.76994104       0.00000000
