10
Lattice="16.28999089631971 0.0 0.0 0.0 16.28999089631971 0.0 0.0 0.0 34.40785480372833" Properties=species:S:1:pos:R:3:initial_magmoms:R:1 pbc="T T T"
Si       0.97326234       1.81431504       1.18999632       0.00000000
Si      -2.15353800      -0.31382685       0.98547592       0.00000000
Si      -0.71446311       0.51885279      -2.22911412       0.00000000
Si       1.46562759      -1.82651625       0.55018191       0.00000000
Si      -0.20227293      -3.00903993       1.77486137       0.00000000
Si       2.37455012       2.77161318      -0.38051668       0.00000000
Si      -3.32653203       1.63010772       0.25916011       0.00000000
Si      -0.81096507       2.83949361      -2.40449105       0.00000000
Si       2.50716753      -2.56539807      -1.41609046       0.00000000
Si       2.50469177       0.99354339       2.82282199       0.00000000
