10
Lattice="16.28999089631971 0.0 0.0 0.0 16.28999089631971 0.0 0.0 0.0 34.40785480372833" Properties=species:S:1:pos:R:3:initial_magmoms:R:1 pbc="T T T"
Si       1.35631586      -1.35726651       1.35818201       0.00000000
Si      -1.35834165      -1.35826020      -1.35659925       0.00000000
Si      -1.35754344       1.35757602       1.35838846       0.00000000
Si       1.35938421       1.35847197      -1.35656484       0.00000000
Si       0.00057015      -2.71661814       2.71302646       0.00000000
Si      -2.71492398       2.71502172       0.00075697       0.00000000
Si       2.71442781      -0.00074934       2.71557264       0.00000000
Si      -2.71546155      -2.71464705       0.00037849       0.00000000
Si       0.00100998      -2.71305063      -2.71715540       0.00000000
Si       2.71518529      -2.71511946       0.00024086       0.00000000
