10
Lattice="16.28999089631971 0.0 0.0 0.0 16.28999089631971 0.0 0.0 0.0 34.40785480372833" Properties=species:S:1:pos:R:3:initial_magmoms:R:1 pbc="T T T"
Si       1.35922131       1.35066906       1.35680570       0.00000000
Si       1.35630540      -1.35702216      -1.36196688       0.00000000
Si      -1.35935163       1.35913986      -1.35959273       0.00000000
Si      -1.37134107      -1.35891180       1.38027187       0.00000000
Si       0.03502350       2.75985180       2.63578078       0.00000000
Si       2.70474710      -2.70633915      -0.00464506       0.00000000
Si       2.71151937       2.71642266       0.00051612       0.00000000
Si      -2.71679733      -2.71122615      -0.00041289       0.00000000
Si       2.71205111       0.00232947      -2.71681133       0.00000000
Si      -0.00149868      -2.71207323      -2.71718981       0.00000000
