10
Lattice="16.28999089631971 0.0 0.0 0.0 16.28999089631971 0.0 0.0 0.0 34.40785480372833" Properties=species:S:1:pos:R:3:initial_magmoms:R:1 pbc="T T T"
Si      -1.32419781       1.40918274       1.27897509       0.00000000
Si      -1.35922131      -1.35066906      -1.35680570       0.00000000
Si       1.35229806       1.36575360      -1.35628958       0.00000000
Si       1.31507541      -1.16616852       1.69324589       0.00000000
Si       0.41818059       2.41787583       2.55234169       0.00000000
Si      -0.51966729      -2.31663348       2.89153451       0.00000000
Si       2.19024167       0.68414742       3.03680455       0.00000000
Si       2.69787391      -2.69443116       0.03234340       0.00000000
Si      -0.00291591      -2.70769122      -2.71877257       0.00000000
Si       2.71094175       0.00817758      -2.71622639       0.00000000
