10
Lattice="16.28999089631971 0.0 0.0 0.0 16.28999089631971 0.0 0.0 0.0 34.40785480372833" Properties=species:S:1:pos:R:3:initial_magmoms:R:1 pbc="T T T"
Si       1.35592421       1.35716877      -1.35900780       0.00000000
Si       1.36038767      -1.36425492       1.35140366       0.00000000
Si      -1.35932909      -1.35788553      -1.35887017       0.00000000
Si      -1.36747338       1.36361961       1.35357136       0.00000000
Si       0.00535941      -2.69420310       2.72444987       0.00000000
Si      -2.69938073       0.01490535       2.72317678       0.00000000
Si       2.70713084      -0.01839141       2.71691455       0.00000000
Si       2.71213187      -2.71345136      -0.00344079       0.00000000
Si      -2.71454672      -2.71238600      -0.00092901       0.00000000
Si       2.71340249       2.71430496       0.00020645       0.00000000
