10
Lattice="16.28999089631971 0.0 0.0 0.0 16.28999089631971 0.0 0.0 0.0 34.40785480372833" Properties=species:S:1:pos:R:3:initial_magmoms:R:1 pbc="T T T"
Si      -0.36558018       1.86991281      -1.37421608       0.00000000
Si       1.48945076      -0.93501342      -1.59872746       0.00000000
Si      -1.96108794      -1.19081529       0.70436359       0.00000000
Si       0.78958023       1.26216549       1.88651492       0.00000000
Si       3.14239706      -1.60609626      -0.08367995       0.00000000
Si      -1.44197451       3.24519606       0.17086950       0.00000000
Si      -1.04326047       2.67651216       2.35779957       0.00000000
Si      -3.72083148      -0.54846801      -0.87963730       0.00000000
Si       1.74959554       2.67089211      -2.18369573       0.00000000
Si       2.02583484      -3.04121268       1.41158303       0.00000000
