10
Lattice="16.28999089631971 0.0 0.0 0.0 16.28999089631971 0.0 0.0 0.0 34.40785480372833" Properties=species:S:1:pos:R:3:initial_magmoms:R:1 pbc="T T T"
Si      -1.07458614      -1.88789697       0.60162168       0.00000000
Si      -1.06113060       1.47528756       1.44275657       0.00000000
Si      -0.30481848       0.37554966      -2.29273428       0.00000000
Si       2.29433314       0.36140994       0.36190202       0.00000000
Si       0.53110287       2.54046364      -2.03804719       0.00000000
Si      -0.73231695       3.24272880      -0.15559241       0.00000000
Si       0.00180819      -3.26318022      -0.94346391       0.00000000
Si       2.68862282       2.12009693      -1.19663704       0.00000000
Si      -3.29554845      -1.56985101       0.02442959       0.00000000
Si       0.23550453       1.26156276       3.44749694       0.00000000
