10
Lattice="16.28999089631971 0.0 0.0 0.0 16.28999089631971 0.0 0.0 0.0 34.40785480372833" Properties=species:S:1:pos:R:3:initial_magmoms:R:1 pbc="T T T"
Si       0.67181589       2.03352957      -0.95671094       0.00000000
Si      -0.23956074      -1.68461406      -1.61565613       0.00000000
Si       1.05709068      -0.98476308       1.90285866       0.00000000
Si      -2.19924774       0.91999404       0.41117409       0.00000000
Si       1.04337450       1.15877286       2.95463855       0.00000000
Si      -0.60730749      -2.57908167       2.31372308       0.00000000
Si      -2.31627510      -2.61353502      -0.98891671       0.00000000
Si      -2.74274730      -2.18292516       1.30306060       0.00000000
Si      -0.62481924       2.24725437      -2.96145131       0.00000000
Si       0.07798023       3.74300610       0.58032320       0.00000000
