10
Lattice="16.28999089631971 0.0 0.0 0.0 16.28999089631971 0.0 0.0 0.0 34.40785480372833" Properties=species:S:1:pos:R:3:initial_magmoms:R:1 pbc="T T T"
Si       0.23351715       2.09210582       1.12028597       0.00000000
Si       2.19924774      -0.91999404      -0.41117409       0.00000000
Si      -1.75857066      -1.06955253       1.37442253       0.00000000
Si      -0.63148185       0.83093661      -2.30515552       0.00000000
Si      -0.54349956      -3.10291920       0.89188650       0.00000000
Si       2.87106363       1.11353553      -1.36788503       0.00000000
Si      -1.75726746       2.92912675       0.08285416       0.00000000
Si      -2.70801702      -0.52947387      -2.29954704       0.00000000
Si      -3.57278796      -0.56487204      -0.10618270       0.00000000
Si       2.27722797       2.82301206       0.16914911       0.00000000
