10
Lattice="16.28999089631971 0.0 0.0 0.0 16.28999089631971 0.0 0.0 0.0 34.40785480372833" Properties=species:S:1:pos:R:3:initial_magmoms:R:1 pbc="T T T"
Si       0.01371618      -2.14353594      -1.05177989       0.00000000
Si       2.15152523       0.47530962      -1.04985305       0.00000000
Si       0.04701294       0.18696033       2.53190341       0.00000000
Si      -1.04337450      -1.15877286      -2.95463855       0.00000000
Si      -0.96539427       2.58423324      -2.37431535       0.00000000
Si      -3.00910509       1.85332700      -1.42317849       0.00000000
Si       2.61681650       2.79564486      -0.87303099       0.00000000
Si      -0.37155861       0.87475671      -3.91134949       0.00000000
Si       0.51024159       3.87186326      -1.06664410       0.00000000
Si       4.08327488      -0.16076601       0.10322362       0.00000000
