10
Lattice="16.28999089631971 0.0 0.0 0.0 16.28999089631971 0.0 0.0 0.0 34.40785480372833" Properties=species:S:1:pos:R:3:initial_magmoms:R:1 pbc="T T T"
Si      -0.97031385      -1.19832498      -1.78277518       0.00000000
Si       1.11309570      -1.65625317       1.36805707       0.00000000
Si       1.91444967       1.27978542      -0.78862847       0.00000000
Si      -1.74229695       1.05494579       1.49839410       0.00000000
Si       2.29695516      -2.25737046      -0.71251826       0.00000000
Si      -2.23849035      -2.53825893      -0.23479933       0.00000000
Si       0.30074598      -3.17158155      -1.75280592       0.00000000
Si       2.98436058       1.63358793       1.53837605       0.00000000
Si       2.41663779      -0.29636397       2.90886373       0.00000000
Si       3.30739128      -0.35282511      -1.92415713       0.00000000
