10
Lattice="16.28999089631971 0.0 0.0 0.0 16.28999089631971 0.0 0.0 0.0 34.40785480372833" Properties=species:S:1:pos:R:3:initial_magmoms:R:1 pbc="T T T"
Si       0.36579195       0.98699481       2.08353440       0.00000000
Si       0.54463986       1.69701075      -1.57195813       0.00000000
Si       1.43001765      -1.94067657      -0.24075189       0.00000000
Si      -1.60650351      -1.77689691       0.58421129       0.00000000
Si       0.08894340      -1.18866501       2.89500971       0.00000000
Si       3.34065546      -0.63164475      -1.22705360       0.00000000
Si       0.32970960       0.52955532      -3.56919759       0.00000000
Si      -2.20286412      -2.35354662      -1.69754687       0.00000000
Si       1.89635148      -2.37389283       2.06030909       0.00000000
Si      -0.15446178      -3.53861154      -1.40979382       0.00000000
