10
Lattice="16.28999089631971 0.0 0.0 0.0 16.28999089631971 0.0 0.0 0.0 34.40785480372833" Properties=species:S:1:pos:R:3:initial_magmoms:R:1 pbc="T T T"
Si      -0.89748615      -1.88786439      -1.10160250       0.00000000
Si       0.27131484       1.25776719      -1.99180301       0.00000000
Si       2.00480053      -0.45934542       1.19949290       0.00000000
Si      -1.24313375       1.57933179       1.37091293       0.00000000
Si       2.31730789       1.84318092       1.75084467       0.00000000
Si      -0.83743632       3.26752965      -1.63155257       0.00000000
Si       0.40429174       3.17560518       1.99465887       0.00000000
Si      -2.55006985       2.84416884      -0.12985532       0.00000000
Si       0.88474900      -2.89904985      -2.35642325       0.00000000
Si       2.44303411       2.11007628      -2.20994893       0.00000000
