10
Lattice="16.28999089631971 0.0 0.0 0.0 16.28999089631971 0.0 0.0 0.0 34.40785480372833" Properties=species:S:1:pos:R:3:initial_magmoms:R:1 pbc="T T T"
Si       1.91166408      -0.32669595      -1.36767858       0.00000000
Si      -2.00480053       0.45934542      -1.19949290       0.00000000
Si       0.31250736       2.30252634       0.55135177       0.00000000
Si      -0.11139102      -1.65793104       1.77682262       0.00000000
Si      -1.09069695       1.74781926       3.23103700       0.00000000
Si      -3.24793428       2.03867721       0.17142003       0.00000000
Si       2.05097616       2.46682728       2.14378259       0.00000000
Si       1.91254374      -1.29212280       3.10035590       0.00000000
Si       1.52588430       0.51859215      -3.51651913       0.00000000
Si       1.06901496       3.51881919      -1.35109399       0.00000000
