10
Lattice="16.28999089631971 0.0 0.0 0.0 16.28999089631971 0.0 0.0 0.0 34.40785480372833" Properties=species:S:1:pos:R:3:initial_magmoms:R:1 pbc="T T T"
Si      -1.53142943       0.82077165      -1.63282566       0.00000000
Si      -1.66815140      -0.38059956       1.68017090       0.00000000
Si       0.75398493      -2.20520988      -0.72669430       0.00000000
Si       2.02709567       1.48721184      -0.14372169       0.00000000
Si       0.10703898      -0.98710884       3.16213665       0.00000000
Si      -0.13014166       1.77806979      -3.20333866       0.00000000
Si      -1.03906418      -2.82005964      -2.27264008       0.00000000
Si      -2.50469177      -0.99354339      -2.82282199       0.00000000
Si       3.00640160      -1.91853846      -1.59793608       0.00000000
Si      -2.94362582      -2.51256960       1.00780663       0.00000000
