10
Lattice="16.28999089631971 0.0 0.0 0.0 16.28999089631971 0.0 0.0 0.0 34.40785480372833" Properties=species:S:1:pos:R:3:initial_magmoms:R:1 pbc="T T T"
Si      -1.35574571      -1.35935163       1.35484445       0.00000000
Si      -1.35631586       1.35726651      -1.35818201       0.00000000
Si       1.35811194       1.35651717       1.35739063       0.00000000
Si       1.35886943      -1.35785295      -1.35794116       0.00000000
Si      -0.00730402      -2.70866862       2.71216626       0.00000000
Si      -2.71354979      -2.71440270      -0.00037849       0.00000000
Si      -2.71385930       2.71484253       0.00020645       0.00000000
Si      -2.71205111      -0.00232947       2.71681133       0.00000000
Si      -2.71465751      -0.00099369      -2.71478126       0.00000000
Si       2.71553972       0.00065160      -2.71398988       0.00000000
