10
Lattice="16.28999089631971 0.0 0.0 0.0 16.28999089631971 0.0 0.0 0.0 34.40785480372833" Properties=species:S:1:pos:R:3:initial_magmoms:R:1 pbc="T T T"
Si      -1.35811194      -1.35651717      -1.35739063       0.00000000
Si       1.35760697      -1.35389448       1.36145076       0.00000000
Si       1.35819341       1.35873261      -1.35735622       0.00000000
Si      -1.35864369       1.35757602       1.35993681       0.00000000
Si      -2.71094175      -0.00817758       2.71622639       0.00000000
Si       0.01754107       2.71464705       2.71416192       0.00000000
Si       0.00075748      -2.71437012      -2.71533179       0.00000000
Si      -2.71385766      -2.71586880      -0.00254618       0.00000000
Si       2.71545992      -2.71450044       0.00141072       0.00000000
Si      -2.71442781       0.00074934      -2.71557264       0.00000000
