10
Lattice="16.28999089631971 0.0 0.0 0.0 16.28999089631971 0.0 0.0 0.0 34.40785480372833" Properties=species:S:1:pos:R:3:initial_magmoms:R:1 pbc="T T T"
Si       1.65294630      -0.67108284       1.51504751       0.00000000
Si      -0.68484952      -1.69277535      -1.48232562       0.00000000
Si      -1.48945076       0.93501342       1.59872746       0.00000000
Si       0.64352993       1.58042322      -1.94294383       0.00000000
Si      -1.85503094       2.80492623       0.22451138       0.00000000
Si       0.26014478       3.60590553      -0.58496827       0.00000000
Si       0.53638409      -2.10619926       3.01031049       0.00000000
Si       2.93894406       0.99531900      -2.32414867       0.00000000
Si      -0.73596656      -3.85843311      -0.51690949       0.00000000
Si       2.63984337       1.03677705       2.81659416       0.00000000
