10
Lattice="16.28999089631971 0.0 0.0 0.0 16.28999089631971 0.0 0.0 0.0 34.40785480372833" Properties=species:S:1:pos:R:3:initial_magmoms:R:1 pbc="T T T"
Si       1.15285959      -2.04802767      -0.27732746       0.00000000
Si      -2.18685431      -0.88762581       0.39132075       0.00000000
Si       0.22835322       1.39027005      -1.93964067       0.00000000
Si       1.19158092       1.08251937       1.78102038       0.00000000
Si      -1.95343816      -2.02281075       2.39936428       0.00000000
Si      -1.04948977       3.34471167      -1.56404432       0.00000000
Si       3.52976607       1.10469006       1.19340270       0.00000000
Si       1.32703227      -3.18026412       1.82096792       0.00000000
Si      -1.22683900       0.52110081      -3.67888989       0.00000000
Si      -2.97643454      -2.14979130      -1.49519417       0.00000000
