10
Lattice="16.28999089631971 0.0 0.0 0.0 16.28999089631971 0.0 0.0 0.0 34.40785480372833" Properties=species:S:1:pos:R:3:initial_magmoms:R:1 pbc="T T T"
Si      -2.21287921      -0.55529352       0.26769326       0.00000000
Si       0.85638159      -2.18971809       0.01386637       0.00000000
Si       0.23583033       0.95781942       2.14550299       0.00000000
Si       0.09014886       1.12366791      -2.08442901       0.00000000
Si      -1.81314216      -2.07358668       2.16012633       0.00000000
Si       0.24508305       3.25049031       1.67067432       0.00000000
Si       2.48095071       0.56552364       2.75816959       0.00000000
Si       0.22560021      -3.13911558      -2.04448147       0.00000000
Si       2.42833401       1.14583860      -2.67204668       0.00000000
Si      -0.79482168       3.33032760      -1.66024874       0.00000000
