10
Lattice="16.28999089631971 0.0 0.0 0.0 16.28999089631971 0.0 0.0 0.0 34.40785480372833" Properties=species:S:1:pos:R:3:initial_magmoms:R:1 pbc="T T T"
Si      -1.70867017      -1.09273320       1.33553272       0.00000000
Si       0.96183491       1.58877999       1.58742245       0.00000000
Si      -0.19779546       0.74823228      -2.37114982       0.00000000
Si       1.82512671      -1.46238588      -1.09286290       0.00000000
Si      -1.68566869       2.58514155      -2.08859236       0.00000000
Si       2.72516550       2.62151712       0.51656683       0.00000000
Si       2.67662130      -2.69522937       0.68053927       0.00000000
Si      -0.38030212      -2.35844991       3.04393184       0.00000000
Si       2.34427272       0.34103115       3.07328176       0.00000000
Si       3.61583754       0.06858090      -1.81532503       0.00000000
