10
Lattice="16.28999089631971 0.0 0.0 0.0 16.28999089631971 0.0 0.0 0.0 34.40785480372833" Properties=species:S:1:pos:R:3:initial_magmoms:R:1 pbc="T T T"
Si       0.85149459      -1.23284349       1.77340217       0.00000000
Si      -0.01251072      -1.60686189      -1.71072509       0.00000000
Si       1.79071083       1.53096678      -0.72246213       0.00000000
Si      -1.82512671       1.46238588       1.09286290       0.00000000
Si      -2.02292217       2.21061816      -1.27828693       0.00000000
Si       0.18251316       2.00249712      -2.59115377       0.00000000
Si       1.97288190       0.54665982       2.85309889       0.00000000
Si       2.27553381      -2.42005869      -1.17114081       0.00000000
Si       2.52622062       2.39469516       1.50492819       0.00000000
Si      -0.89185795      -2.39557482       2.91008177       0.00000000
