10
Lattice="16.28999089631971 0.0 0.0 0.0 16.28999089631971 0.0 0.0 0.0 34.40785480372833" Properties=species:S:1:pos:R:3:initial_magmoms:R:1 pbc="T T T"
Si      -1.35603240      -1.35645201      -1.35732181       0.00000000
Si       1.35720461      -1.35694071       1.35745945       0.00000000
Si       1.35813314       1.35741312      -1.35704655       0.00000000
Si      -1.35797230       1.35757602       1.35742504       0.00000000
Si       2.71329824       0.00127062       2.71388666       0.00000000
Si       0.00328569       2.70995553      -2.71873817       0.00000000
Si       2.71368920       0.00296478      -2.71522856       0.00000000
Si      -2.71494420       0.00066789       2.71398988       0.00000000
Si       2.71450370       2.71484253       0.00030967       0.00000000
Si       2.71476434      -2.71459818      -0.00055053       0.00000000
