10
Lattice="10.86 0.0 0.0 0.0 10.86 0.0 0.0 0.0 10.86" Properties=species:S:1:pos:R:3:initial_magmoms:R:1 pbc="T T T"
Si      -1.63653684       1.28554164       0.73228980       0.00000000
Si      -1.16605992      -1.10555886      -1.89669900       0.00000000
Si       0.35077800      -1.96666998       1.78256040       0.00000000
Si       1.29409932       1.42571166      -1.97520594       0.00000000
Si      -2.84446206       0.18122082       2.18506458       0.00000000
Si      -0.12946206       2.89622082       2.18506458       0.00000000
Si      -2.84446206      -2.53377918      -0.52993542       0.00000000
Si       1.11497448       1.41859836       3.39830034       0.00000000
Si      -1.56239562      -1.15481982       3.39054630       0.00000000
Si       2.58553794       2.89622082      -0.52993542       0.00000000
