10
Lattice="16.2900001489832 0.0 0.0 0.0 16.2900001489832 0.0 0.0 0.0 29.0901391577881" Properties=species:S:1:pos:R:3:initial_magmoms:R:1 pbc="T T T"
Si      -1.23795205      -1.51135363       1.28272969       0.00000000
Si       1.32274801       1.35904213       1.38277067       0.00000000
Si      -1.39048672       1.29606499      -1.38303249       0.00000000
Si       1.33027399      -1.41833773      -1.32374678       0.00000000
H       -0.23703579      -2.65636145       1.49229505       0.00000000
H       -2.84157876       0.27828207       1.53209036       0.00000000
Si       2.66776445       2.69014691      -0.01140333       0.00000000
Si      -0.02643867       2.64209141      -2.73528760       0.00000000
Si       2.68988627      -0.07446159      -2.69456141       0.00000000
Si      -0.12483027       2.72824923       2.65537699       0.00000000
