10
Lattice="16.2900001489832 0.0 0.0 0.0 16.2900001489832 0.0 0.0 0.0 29.0901391577881" Properties=species:S:1:pos:R:3:initial_magmoms:R:1 pbc="T T T"
Si       1.33750675       1.33970590      -1.38933923       0.00000000
Si       1.39528738      -1.34776945       1.32988480       0.00000000
Si      -1.33232653       1.37977930       1.36467661       0.00000000
Si      -1.37626066      -1.34858395      -1.35293001       0.00000000
Si      -2.69943221      -2.69840757       0.04730057       0.00000000
Si       0.04605183      -2.68132751       2.72178978       0.00000000
Si       2.71674848       2.70027929      -0.03784627       0.00000000
Si      -0.01857060      -2.74103199      -2.68267518       0.00000000
Si      -2.68982111       0.04271238       2.73572396       0.00000000
Si      -2.70529661       2.72978049       0.01931585       0.00000000
