10
Lattice="16.2900001489832 0.0 0.0 0.0 16.2900001489832 0.0 0.0 0.0 29.0901391577881" Properties=species:S:1:pos:R:3:initial_magmoms:R:1 pbc="T T T"
Si      -1.38380619       1.33403698      -1.33840821       0.00000000
Si      -1.41071564      -1.28458054       1.36008037       0.00000000
Si       1.35092971       1.36171369       1.35932402       0.00000000
Si       1.34944732      -1.38337288      -1.34821159       0.00000000
Si      -0.03932406      -2.72867195       2.57843357       0.00000000
Si      -0.01350441       2.67156002      -2.68795795       0.00000000
Si       2.69894351      -0.04864194       2.67146384       0.00000000
Si       2.71938746       2.69563664       0.01035609       0.00000000
Si      -2.72262917       2.70115895       0.02897378       0.00000000
Si       2.71816571      -0.04474863      -2.70663382       0.00000000
