10
Lattice="16.2900001489832 0.0 0.0 0.0 16.2900001489832 0.0 0.0 0.0 29.0901391577881" Properties=species:S:1:pos:R:3:initial_magmoms:R:1 pbc="T T T"
Si      -1.31784472      -1.36264222       1.38293067       0.00000000
Si       1.32924772      -1.38292327      -1.36415008       0.00000000
Si       1.37859013       1.34291503       1.36134579       0.00000000
Si      -1.40538718       1.35946567      -1.32275190       0.00000000
Si      -0.05058045       2.68258835      -2.69840550       0.00000000
Si      -0.08990451      -2.68934870      -2.72104688       0.00000000
Si      -2.68320737      -2.73642681       0.05440147       0.00000000
Si      -2.64626165      -0.01104462       2.77649379       0.00000000
Si      -2.71428869       2.71122617       0.07121848       0.00000000
Si       2.74463697       2.68451057       0.00188504       0.00000000
