10
Lattice="16.2900001489832 0.0 0.0 0.0 16.2900001489832 0.0 0.0 0.0 29.0901391577881" Properties=species:S:1:pos:R:3:initial_magmoms:R:1 pbc="T T T"
Si       1.44857197       1.34707550      -1.26710828       0.00000000
Si      -1.51366681      -1.20588828      -1.34812432       0.00000000
Si      -1.25133265       1.39035803       1.45706689       0.00000000
Si       1.17556786      -1.85570143       0.91066681       0.00000000
Si       2.77492008      -0.28848450      -2.34710879       0.00000000
Si      -2.64590327      -2.68136009       0.09346662       0.00000000
Si       0.04872339       2.67782190      -2.66355132       0.00000000
Si      -2.57131136       0.06709362       2.86650159       0.00000000
Si      -2.62726751       2.83094790       0.16168299       0.00000000
Si      -3.01641933       0.21900602      -2.41791419       0.00000000
