10
Lattice="16.2900001489832 0.0 0.0 0.0 16.2900001489832 0.0 0.0 0.0 29.0901391577881" Properties=species:S:1:pos:R:3:initial_magmoms:R:1 pbc="T T T"
Si      -1.37950237       1.31938739      -1.35112060       0.00000000
Si      -1.38642562      -1.30858386       1.36866196       0.00000000
Si       1.32114996       1.41448515       1.34015362       0.00000000
Si       1.34527708      -1.38547266      -1.35507686       0.00000000
Si       2.69254154      -0.02960626       2.55850683       0.00000000
Si      -0.02863782      -2.74780537       2.58471704       0.00000000
Si      -0.01138671       2.66070274      -2.70189212       0.00000000
Si      -2.70593192       2.67655291       0.04517699       0.00000000
Si      -2.72557766      -0.06287842      -2.70384116       0.00000000
Si       2.73186560       2.69906569      -0.01992675       0.00000000
