10
Lattice="16.2900001489832 0.0 0.0 0.0 16.2900001489832 0.0 0.0 0.0 29.0901391577881" Properties=species:S:1:pos:R:3:initial_magmoms:R:1 pbc="T T T"
Si       2.24070907       0.02490741      -0.68899995       0.00000000
Si      -0.27837493       0.01938510       2.42443038       0.00000000
Si      -1.07982860      -1.66100987      -1.42896582       0.00000000
Si       0.11614933       2.38373201      -0.56885767       0.00000000
H        1.48320777       1.00479979       1.82354446       0.00000000
H        2.89414984      -0.71074900       0.42570510       0.00000000
H        1.26516612       0.77724478      -2.66032232       0.00000000
Si      -2.57243212       0.29186793       2.01309581       0.00000000
Si       2.52472522       2.30852108      -0.23126661       0.00000000
Si       0.26424987       1.92225260      -2.86988768       0.00000000
