10
Lattice="16.2900001489832 0.0 0.0 0.0 16.2900001489832 0.0 0.0 0.0 29.0901391577881" Properties=species:S:1:pos:R:3:initial_magmoms:R:1 pbc="T T T"
Si       1.78848889      -1.43822782       0.63509592       0.00000000
Si      -1.80308147      -0.32948154       1.55320980       0.00000000
Si       0.59250966       2.01671831       1.35568776       0.00000000
Si      -0.81778081      -1.04068666      -2.13219084       0.00000000
H        1.04610471       0.46776735      -3.28887295       0.00000000
Si       0.66242960      -3.21895290       1.57659827       0.00000000
H        0.37489806       3.59626188      -0.84637760       0.00000000
Si      -1.42502315      -2.50471784       2.36619192       0.00000000
Si       3.12474131      -0.29230776       2.12832185       0.00000000
H        3.29143688      -0.30185370      -1.88108476       0.00000000
