10
Lattice="16.2900001489832 0.0 0.0 0.0 16.2900001489832 0.0 0.0 0.0 29.0901391577881" Properties=species:S:1:pos:R:3:initial_magmoms:R:1 pbc="T T T"
Si       1.36963063      -1.36169740       1.32659762       0.00000000
Si      -1.37665162      -1.37878561      -1.30811083       0.00000000
Si       1.35290080       1.33317361      -1.38747455       0.00000000
Si      -1.35035956       1.36856771       1.36307665       0.00000000
Si      -0.05361039       2.67751076      -2.69870385       0.00000000
Si      -0.00912240      -2.70032816       2.68248900       0.00000000
Si      -2.74250298      -0.04144176      -2.64201589       0.00000000
Si       2.61653240      -0.10477728      -2.76744384       0.00000000
Si       2.70190829       0.01513341       2.69220511       0.00000000
Si       2.71891505       2.69569692      -0.05230407       0.00000000
