10
Lattice="16.2900001489832 0.0 0.0 0.0 16.2900001489832 0.0 0.0 0.0 29.0901391577881" Properties=species:S:1:pos:R:3:initial_magmoms:R:1 pbc="T T T"
Si      -1.43094782       1.29139954      -1.28352676       0.00000000
Si      -1.41842733      -1.31232241       1.29786238       0.00000000
Si       1.35075052       1.44369963       1.26496143       0.00000000
Si       1.34271955      -1.31787730      -1.40832636       0.00000000
Si      -0.04215852       2.56238444      -2.61534343       0.00000000
Si      -0.02428839      -2.63860535       2.62859079       0.00000000
Si       2.73486296       0.09213217       2.59676618       0.00000000
Si      -2.71404434       0.10003477       2.64176863       0.00000000
Si       2.70857090      -2.65522115      -0.07442130       0.00000000
Si      -2.79339294      -2.59095710      -0.12340037       0.00000000
