10
Lattice="16.2900001489832 0.0 0.0 0.0 16.2900001489832 0.0 0.0 0.0 29.0901391577881" Properties=species:S:1:pos:R:3:initial_magmoms:R:1 pbc="T T T"
Si       1.69249844      -1.05640651       1.20564082       0.00000000
Si      -1.25591014      -1.44857197      -1.35769497       0.00000000
Si       1.41248962       1.36635634      -1.33026297       0.00000000
Si      -1.15689952       1.63532053       1.27260632       0.00000000
H       -1.11902527      -0.85102219       2.80711116       0.00000000
Si       2.37208466       2.56484423       0.53723669       0.00000000
Si       2.82004338       0.82113004       1.99852165       0.00000000
Si       0.40757580       3.43455105       1.43891464       0.00000000
Si      -2.69948108       2.65284281      -0.13899268       0.00000000
Si       2.89240356      -2.46601280      -0.17957343       0.00000000
