10
Lattice="16.2900001489832 0.0 0.0 0.0 16.2900001489832 0.0 0.0 0.0 29.0901391577881" Properties=species:S:1:pos:R:3:initial_magmoms:R:1 pbc="T T T"
Si       0.91854424      -0.47027601      -2.07811227       0.00000000
Si      -2.09689769       0.89122591       0.53476403       0.00000000
Si       1.41327154       1.62587233       0.91793934       0.00000000
Si       0.15609078      -2.21946365       0.80841497       0.00000000
H       -0.31739436       0.20522142       2.79236246       0.00000000
Si      -1.78541660      -0.11792331       2.59094233       0.00000000
Si       3.50072429       0.91163728       0.12834569       0.00000000
Si       3.21260143      -0.74275885      -1.66677770       0.00000000
Si      -1.49392333       2.14314500      -2.63771928       0.00000000
Si      -0.20900070      -2.34781256      -2.87099310       0.00000000
