10
Lattice="16.2900001489832 0.0 0.0 0.0 16.2900001489832 0.0 0.0 0.0 29.0901391577881" Properties=species:S:1:pos:R:3:initial_magmoms:R:1 pbc="T T T"
Si      -1.25522596       1.35689185       1.43957935       0.00000000
Si       1.13223646       1.47547181      -1.44159094       0.00000000
Si      -1.43112538      -1.30613221      -1.33779732       0.00000000
Si       1.32937804      -1.37072206       1.39667995       0.00000000
Si      -0.07099182      -2.62269002      -2.65366067       0.00000000
Si       2.64590327       2.68136009      -0.09346662       0.00000000
Si      -2.64764630       2.70961998       0.15190871       0.00000000
Si       2.72862389      -2.64495845       0.02109035       0.00000000
Si      -2.73049725      -2.67367772       0.05471855       0.00000000
Si      -2.61430067       0.02950119       2.82972292       0.00000000
