10
Lattice="16.2900001489832 0.0 0.0 0.0 16.2900001489832 0.0 0.0 0.0 29.0901391577881" Properties=species:S:1:pos:R:3:initial_magmoms:R:1 pbc="T T T"
Si      -1.36076887       1.31142646      -1.37325820       0.00000000
Si      -1.37694484      -1.35086455       1.33451013       0.00000000
Si       1.34522821      -1.37575567      -1.36776016       0.00000000
Si       1.34708527       1.40063050       1.35007336       0.00000000
Si       2.70487307      -0.03859101       2.56612845       0.00000000
Si      -2.63467946       2.70412764       0.02562841       0.00000000
Si      -0.01466100      -2.70053993       2.66776939       0.00000000
Si       0.00793323       2.64633594      -2.72242976       0.00000000
Si      -2.72867276       0.02246391       2.67332561       0.00000000
Si       2.71230131      -0.03751587      -2.71783352       0.00000000
