10
Lattice="16.2900001489832 0.0 0.0 0.0 16.2900001489832 0.0 0.0 0.0 29.0901391577881" Properties=species:S:1:pos:R:3:initial_magmoms:R:1 pbc="T T T"
H       -1.13508721       0.98668531       0.32083514       0.00000000
Si       0.93151108      -0.58890142       2.05111662       0.00000000
Si      -1.23745357      -1.56841066      -1.25809034       0.00000000
Si       1.50205204       1.34456032      -1.24630883       0.00000000
H        2.00013509      -1.95638015      -0.71375565       0.00000000
Si       0.05494617       2.55818162      -2.61514533       0.00000000
Si      -2.61330698      -0.23727200      -2.59998937       0.00000000
Si      -2.77174353       2.60752403       0.09177939       0.00000000
Si       3.03011922      -0.03901455      -2.35091960       0.00000000
Si      -0.63127009      -0.71174757       3.76152953       0.00000000
