10
Lattice="16.2900001489832 0.0 0.0 0.0 16.2900001489832 0.0 0.0 0.0 29.0901391577881" Properties=species:S:1:pos:R:3:initial_magmoms:R:1 pbc="T T T"
Si       1.35668008       1.37261170       1.32491039       0.00000000
Si      -1.36404805      -1.34602642       1.35225512       0.00000000
Si       1.36418977      -1.36736632      -1.33058296       0.00000000
Si      -1.37301895       1.39165471      -1.29823473       0.00000000
Si      -0.02575449       2.74752111       2.61534896       0.00000000
Si       0.00762372       2.72031078      -2.64999532       0.00000000
Si       0.02643867      -2.64209141       2.73528760       0.00000000
Si      -2.73950561       0.03039714      -2.64240279       0.00000000
Si      -2.74693386       0.02932200       2.64155918       0.00000000
Si      -0.00490329      -2.72758133      -2.66407494       0.00000000
