10
Lattice="16.2900001489832 0.0 0.0 0.0 16.2900001489832 0.0 0.0 0.0 29.0901391577881" Properties=species:S:1:pos:R:3:initial_magmoms:R:1 pbc="T T T"
Si      -1.39924585       1.27423639       1.37558960       0.00000000
Si      -1.43037604      -1.30269502      -1.34160813       0.00000000
Si       1.34052040      -1.34952877       1.39701350       0.00000000
Si       1.49478670       1.69288940      -0.71523925       0.00000000
H        2.13879557      -2.23506947       0.42814867       0.00000000
Si       1.88819021      -2.60784983      -1.83445327       0.00000000
Si       1.09284724       3.47061711       0.79610984       0.00000000
Si       0.01611081       2.61112412       2.68320462       0.00000000
Si      -2.72862389       2.64495845      -0.02109035       0.00000000
Si      -0.20012265      -2.38840724      -2.97080137       0.00000000
