10
Lattice="16.2900001489832 0.0 0.0 0.0 16.2900001489832 0.0 0.0 0.0 29.0901391577881" Properties=species:S:1:pos:R:3:initial_magmoms:R:1 pbc="T T T"
H       -1.15582438      -1.13262742       0.49749956       0.00000000
Si       1.54724050       0.39596103       1.63655305       0.00000000
Si      -1.31514058       1.60013413      -1.06283732       0.00000000
Si       1.44712216      -1.44477640      -1.14047891       0.00000000
H       -2.83858140      -0.09687663       1.74124846       0.00000000
Si      -2.37408833      -2.39699207       0.35967048       0.00000000
Si       0.14004513       1.49519395       3.07209324       0.00000000
Si      -2.67159260       0.15801300      -2.34390887       0.00000000
Si       1.81025885      -3.10909314       0.47870733       0.00000000
Si       2.18774702      -1.72880885       2.35350862       0.00000000
