10
Lattice="16.2900001489832 0.0 0.0 0.0 16.2900001489832 0.0 0.0 0.0 29.0901391577881" Properties=species:S:1:pos:R:3:initial_magmoms:R:1 pbc="T T T"
H       -1.24936563       0.28944887       0.78249565       0.00000000
H       -0.48128480      -0.92475724      -1.09687279       0.00000000
Si       1.48962766      -0.89734117       1.50588014       0.00000000
Si       0.90019030       1.88025046      -1.01649673       0.00000000
H        0.53793327       1.88020159       1.49575678       0.00000000
Si      -1.34028746       2.67824870      -1.16162744       0.00000000
Si       2.52179465      -2.24667447      -0.08421595       0.00000000
Si       2.25038696       0.66337442      -2.54977979       0.00000000
Si      -0.26989598       2.22338302       2.73074954       0.00000000
Si       0.10244618      -2.03237951       2.95922350       0.00000000
