10
Lattice="16.2900001489832 0.0 0.0 0.0 16.2900001489832 0.0 0.0 0.0 29.0901391577881" Properties=species:S:1:pos:R:3:initial_magmoms:R:1 pbc="T T T"
Si      -1.36057339       1.33529131       1.35874222       0.00000000
Si       1.34920297       1.35583300      -1.35336054       0.00000000
Si       1.36399429      -1.28005192       1.41386803       0.00000000
Si      -1.33837012      -1.37714032      -1.35269147       0.00000000
Si       2.70319520      -2.67403610       0.05943115       0.00000000
Si       2.70643691      -0.02883330      -2.68469985       0.00000000
Si      -0.02981070       2.69628824      -2.69607410       0.00000000
Si      -0.00355122      -2.63836100       2.75437074       0.00000000
Si      -0.00480555       2.71888247       2.67652552       0.00000000
Si      -2.72368802      -0.02697624      -2.68551438       0.00000000
