10
Lattice="16.2900001489832 0.0 0.0 0.0 16.2900001489832 0.0 0.0 0.0 29.0901391577881" Properties=species:S:1:pos:R:3:initial_magmoms:R:1 pbc="T T T"
Si       1.07673643       0.85949299      -1.88709478       0.00000000
Si      -1.41535666      -1.33688773      -1.30761502       0.00000000
Si      -1.26363160       1.43795089       1.37996929       0.00000000
Si       1.48778200      -1.27703827       1.31511283       0.00000000
Si      -0.01611081      -2.61112412      -2.68320462       0.00000000
Si       0.09961335      -2.60643260       2.70106015       0.00000000
Si      -2.61653240       0.10477728       2.76744384       0.00000000
Si       1.47867589      -0.91823473      -3.39844387       0.00000000
Si      -2.72991081      -2.67354740       0.06583389       0.00000000
Si      -2.74473471       0.03383433      -2.70429497       0.00000000
