10
Lattice="16.2900001489832 0.0 0.0 0.0 16.2900001489832 0.0 0.0 0.0 29.0901391577881" Properties=species:S:1:pos:R:3:initial_magmoms:R:1 pbc="T T T"
Si       1.45653778       1.28357056      -1.31280889       0.00000000
Si       1.35417142      -1.34389243       1.37421817       0.00000000
Si      -1.33561711       1.36416110       1.37395636       0.00000000
Si      -1.29055897      -1.37925802      -1.41070303       0.00000000
Si      -2.67595832       2.69825445      -0.01067608       0.00000000
Si      -2.67872762      -2.70865235      -0.02475571       0.00000000
Si       2.68677488      -2.72697860       0.01786135       0.00000000
Si      -2.69296508       0.01769094       2.73383310       0.00000000
Si      -0.00086337      -2.68485266       2.74352011       0.00000000
Si       2.74395279       2.69032285       0.07423804       0.00000000
