10
Lattice="16.2900001489832 0.0 0.0 0.0 16.2900001489832 0.0 0.0 0.0 29.0901391577881" Properties=species:S:1:pos:R:3:initial_magmoms:R:1 pbc="T T T"
Si       1.36076887      -1.31142646       1.37325820       0.00000000
Si       1.36870210       1.33490947      -1.34917156       0.00000000
Si      -1.27391059       1.39270118       1.39888661       0.00000000
Si      -1.34218198      -1.37536471      -1.36095307       0.00000000
Si      -2.66457161       2.69979874       0.01306147       0.00000000
Si      -0.00100998       2.65706681      -2.71091007       0.00000000
Si      -0.01617597      -2.66229101       2.70776833       0.00000000
Si      -2.70210377       0.03850956       2.66893300       0.00000000
Si       2.70599708      -2.68718213       0.00549804       0.00000000
Si       2.69933447      -0.03675024      -2.71739717       0.00000000
