10
Lattice="16.2900001489832 0.0 0.0 0.0 16.2900001489832 0.0 0.0 0.0 29.0901391577881" Properties=species:S:1:pos:R:3:initial_magmoms:R:1 pbc="T T T"
Si      -1.36399429       1.28005192      -1.41386803       0.00000000
Si      -1.36754551      -1.35830908       1.34050270       0.00000000
Si       1.33920091      -1.39398418      -1.35443688       0.00000000
Si       1.31173597       1.44238177       1.35548412       0.00000000
Si       0.07956036      -2.57193038       2.70933920       0.00000000
Si      -2.72456768       2.61534323      -0.05512581       0.00000000
Si       2.64324800       2.71632494      -0.07129993       0.00000000
Si      -0.01479132       2.63588492      -2.76722858       0.00000000
Si       2.75455758      -2.65237040       0.03138826       0.00000000
Si       2.71476110      -0.07869699      -2.72917868       0.00000000
