10
Lattice="16.2900001489832 0.0 0.0 0.0 16.2900001489832 0.0 0.0 0.0 29.0901391577881" Properties=species:S:1:pos:R:3:initial_magmoms:R:1 pbc="T T T"
Si       1.50390910      -1.31678587      -1.18315414       0.00000000
Si      -1.22257591      -1.42527727       1.48391709       0.00000000
Si      -1.02832255       0.99224020      -1.95578824       0.00000000
Si       1.64462213       1.30179907       1.25055599       0.00000000
H       -1.35845732       2.62371629       0.23789916       0.00000000
Si       0.95438224       2.17043075      -2.41983414       0.00000000
Si       2.50737311       0.27901512      -2.54966343       0.00000000
Si      -2.04258439       0.15061734       2.95517997       0.00000000
Si       0.16765668      -2.46270593      -2.67638007       0.00000000
Si      -1.62083221      -1.02447811      -3.31147599       0.00000000
