10
Lattice="16.2900001489832 0.0 0.0 0.0 16.2900001489832 0.0 0.0 0.0 29.0901391577881" Properties=species:S:1:pos:R:3:initial_magmoms:R:1 pbc="T T T"
Si      -1.14629473       1.57239226       1.28712230       0.00000000
Si       1.32432814      -1.31549896       1.43999098       0.00000000
Si       1.39426111       1.42337134      -1.32598672       0.00000000
Si      -2.03779105      -0.97080256      -0.91636847       0.00000000
H        0.63107461      -1.28575342      -2.43385558       0.00000000
H       -0.99486289       1.83436805      -2.81138741       0.00000000
Si      -2.46832272       2.50334948      -0.41537810       0.00000000
Si      -2.75644559       0.84895336      -2.21050149       0.00000000
Si      -2.67110228       0.37157490       2.55399786       0.00000000
Si       2.71876844      -2.63002052       0.09527021       0.00000000
