10
Lattice="16.2900001489832 0.0 0.0 0.0 16.2900001489832 0.0 0.0 0.0 29.0901391577881" Properties=species:S:1:pos:R:3:initial_magmoms:R:1 pbc="T T T"
H       -1.08328501      -1.07404858      -0.23245930       0.00000000
Si      -0.04176756       0.22967271      -2.28727037       0.00000000
Si      -1.43068555       1.37565793       1.22204766       0.00000000
Si       1.30583899      -1.48504528       1.25294138       0.00000000
H        0.07226244       2.51203205      -1.29413302       0.00000000
H        0.32765706      -2.78959737      -1.63029867       0.00000000
Si      -2.55674485      -0.40506714       2.16355001       0.00000000
Si      -0.32578371      -2.05394096      -2.74500371       0.00000000
Si      -2.84486771      -2.05946327       0.36842661       0.00000000
Si      -2.45034345       0.30488364      -2.62486144       0.00000000
