10
Lattice="16.2900001489832 0.0 0.0 0.0 16.2900001489832 0.0 0.0 0.0 29.0901391577881" Properties=species:S:1:pos:R:3:initial_magmoms:R:1 pbc="T T T"
Si       1.34415307       1.35288451      -1.35402962       0.00000000
Si      -1.32954094       1.38284182       1.34044452       0.00000000
Si       1.34364808      -1.31499397       1.41165718       0.00000000
Si      -1.37787337      -1.35772264      -1.33939728       0.00000000
Si      -2.59675634      -0.11109780       2.59990210       0.00000000
Si       2.68664456      -0.03517011      -2.67838729       0.00000000
Si      -0.04116483       2.70304859      -2.68685252       0.00000000
Si      -0.00680922      -2.72693788      -2.66730395       0.00000000
Si       2.68252319       2.73002484      -0.00133815       0.00000000
Si       2.67897197       0.09166383       2.75303259       0.00000000
