10
Lattice="16.2900001489832 0.0 0.0 0.0 16.2900001489832 0.0 0.0 0.0 29.0901391577881" Properties=species:S:1:pos:R:3:initial_magmoms:R:1 pbc="T T T"
Si      -2.37586394      -0.08369802      -0.07711796       0.00000000
Si       1.08035281       0.24625593      -2.11206046       0.00000000
Si       0.26915967       2.39067155       0.22032871       0.00000000
Si       1.12910878      -0.36676935       2.17090981       0.00000000
Si       0.09989028      -2.38594745      -0.81437845       0.00000000
Si      -0.55728091      -1.96519304       2.75119991       0.00000000
Si       3.23200119       0.52393527      -1.24418525       0.00000000
Si      -2.64559376      -1.74575045       1.61485180       0.00000000
Si       2.61094493       2.46195659       0.17660623       0.00000000
Si       0.41137137      -3.39509667       1.24179986       0.00000000
