10
Lattice="16.2900001489832 0.0 0.0 0.0 16.2900001489832 0.0 0.0 0.0 29.0901391577881" Properties=species:S:1:pos:R:3:initial_magmoms:R:1 pbc="T T T"
Si       0.04176756      -0.22967271       2.28727037       0.00000000
Si      -0.28401615      -2.28361367      -0.45773334       0.00000000
Si       1.67923838       1.14593635      -1.17419438       0.00000000
Si      -2.40857589       0.07521093      -0.33759106       0.00000000
H        0.11403000       2.28235934       0.99313735       0.00000000
H       -1.04151745      -1.30372129       2.05481107       0.00000000
H        0.36942462      -3.01927008       0.65697170       0.00000000
H       -1.25955910      -1.53127630      -2.42905571       0.00000000
Si      -2.52472522      -2.30852108       0.23126661       0.00000000
Si      -2.26047535      -0.38626848      -2.63862107       0.00000000
