10
Lattice="16.2900001489832 0.0 0.0 0.0 16.2900001489832 0.0 0.0 0.0 29.0901391577881" Properties=species:S:1:pos:R:3:initial_magmoms:R:1 pbc="T T T"
Si      -1.31774698      -1.38201103      -1.33837912       0.00000000
Si       1.35567010      -1.37158543       1.33483013       0.00000000
Si      -1.31276224       1.40626684       1.35242966       0.00000000
Si       1.36445041       1.36117612      -1.36232031       0.00000000
Si       2.68131773       0.07539012       2.63347212       0.00000000
Si      -2.68424993      -0.03292209      -2.71847350       0.00000000
Si      -2.50522283      -2.90543556       0.02810107       0.00000000
Si      -2.69177591       2.74445778      -0.01195605       0.00000000
Si       0.01120752       2.69452892      -2.74192016       0.00000000
Si       0.03712491      -2.72855873      -2.71812442       0.00000000
