10
Lattice="16.2900001489832 0.0 0.0 0.0 16.2900001489832 0.0 0.0 0.0 29.0901391577881" Properties=species:S:1:pos:R:3:initial_magmoms:R:1 pbc="T T T"
Si       1.20935332       1.18640397       1.65511256       0.00000000
Si       1.22603428      -1.55843011      -1.34835704       0.00000000
Si      -2.20998287       0.46258225       0.91436125       0.00000000
Si      -1.79041763       1.27195742      -1.43827466       0.00000000
Si      -1.58723245      -0.61445718       2.94892559       0.00000000
Si      -0.03966615       2.33577588      -2.63257032       0.00000000
H       -0.29740653      -3.25544087       1.45572874       0.00000000
H        2.83069704       2.22899493      -1.07665514       0.00000000
Si       0.31910481       0.47490889       3.72470142       0.00000000
Si       1.16501194       3.46429822       1.03301993       0.00000000
