10
Lattice="16.2900001489832 0.0 0.0 0.0 16.2900001489832 0.0 0.0 0.0 29.0901391577881" Properties=species:S:1:pos:R:3:initial_magmoms:R:1 pbc="T T T"
Si      -1.35445487       1.43703865      -1.24673646       0.00000000
Si      -1.34618932      -1.33235911       1.37399709       0.00000000
Si       1.30473127      -1.35648460      -1.39399656       0.00000000
Si       1.36536265       1.37378458       1.32852920       0.00000000
Si       2.59330286       0.04707810      -2.77544835       0.00000000
Si       0.02204037      -2.68548797       2.71028172       0.00000000
Si      -2.69796611      -2.69783579       0.04082219       0.00000000
Si       2.69439860      -2.70457985      -0.04371666       0.00000000
Si       2.73833274       0.02378340       2.67388996       0.00000000
Si       2.68320737       2.73642681      -0.05440147       0.00000000
