10
Lattice="16.2900001489832 0.0 0.0 0.0 16.2900001489832 0.0 0.0 0.0 29.0901391577881" Properties=species:S:1:pos:R:3:initial_magmoms:R:1 pbc="T T T"
Si       1.39422853      -1.22530123       1.40456792       0.00000000
Si       1.00323595       1.62432478      -1.34138064       0.00000000
Si      -1.42545646       1.34532595       1.28567361       0.00000000
Si      -0.76874140      -1.88512769      -1.19033650       0.00000000
Si       2.38619506       0.21097179      -2.75636923       0.00000000
Si       2.70006101      -2.55160046       0.00937284       0.00000000
Si      -0.04090419      -2.61926912       2.63749528       0.00000000
Si      -0.84743839       3.35287299      -1.53321615       0.00000000
Si      -0.04813695       2.79728625       2.55758467       0.00000000
Si      -2.67154373       2.68613957      -0.17088711       0.00000000
