10
Lattice="16.2900001489832 0.0 0.0 0.0 16.2900001489832 0.0 0.0 0.0 29.0901391577881" Properties=species:S:1:pos:R:3:initial_magmoms:R:1 pbc="T T T"
Si      -1.34415307      -1.35288451       1.35402962       0.00000000
Si       1.34249149      -1.38805462      -1.32435768       0.00000000
Si       1.33837012       1.37714032       1.35269147       0.00000000
Si      -1.38531790       1.35016408      -1.33282291       0.00000000
Si       2.69024465      -0.03129309      -2.67707824       0.00000000
Si      -2.67369401       0.02995731       2.69447414       0.00000000
Si      -0.04098564       2.70032816      -2.69941946       0.00000000
Si       2.70195716      -2.70528032       0.07351078       0.00000000
Si       2.68757309       2.73297332      -0.00066907       0.00000000
Si      -0.02220327       2.71243163       2.71143369       0.00000000
