10
Lattice="16.2900001489832 0.0 0.0 0.0 16.2900001489832 0.0 0.0 0.0 29.0901391577881" Properties=species:S:1:pos:R:3:initial_magmoms:R:1 pbc="T T T"
H       -0.19264554       1.39546657      -0.57813743       0.00000000
Si       2.30721788      -0.09353718      -0.27737448       0.00000000
Si      -1.85246624      -0.87700474      -1.10650162       0.00000000
Si      -0.66495781       0.40408974       2.21053058       0.00000000
H        1.19311219      -1.48235743       2.16733173       0.00000000
Si      -2.10675314       2.02611764       1.30576908       0.00000000
Si      -3.40294845       0.59926024      -0.06126383       0.00000000
Si       2.98396965       1.31843116       1.49980030       0.00000000
Si       1.32437701       1.13380030       3.14993845       0.00000000
Si       2.61887816       1.19008225      -2.17960777       0.00000000
