10
Lattice="16.2900001489832 0.0 0.0 0.0 16.2900001489832 0.0 0.0 0.0 29.0901391577881" Properties=species:S:1:pos:R:3:initial_magmoms:R:1 pbc="T T T"
Si       1.25591014       1.44857197       1.35769497       0.00000000
Si      -1.36702423       1.30810330      -1.40263924       0.00000000
Si       1.33278265      -1.33872850      -1.40921361       0.00000000
Si      -1.49390704      -1.28938609       1.29771111       0.00000000
H       -2.51338412       0.08591346       1.36042945       0.00000000
H        0.14274927      -2.91022482       1.52676686       0.00000000
Si       2.77988853      -2.55234980      -0.04037711       0.00000000
Si      -2.76921858       2.65443923      -0.07993970       0.00000000
Si      -0.02423952       2.63492381      -2.80484213       0.00000000
Si       2.70032816       0.01958058      -2.74971631       0.00000000
