10
Lattice="16.2900001489832 0.0 0.0 0.0 16.2900001489832 0.0 0.0 0.0 29.0901391577881" Properties=species:S:1:pos:R:3:initial_magmoms:R:1 pbc="T T T"
Si      -1.40219434       1.34633593       1.32269954       0.00000000
Si       1.34278471       1.32682051      -1.40220289       0.00000000
Si       1.36702423      -1.30810330       1.40263924       0.00000000
Si      -1.30870603      -1.35565381      -1.41916244       0.00000000
H       -1.14635989      -1.22218984       2.76306869       0.00000000
Si      -2.56336184      -0.29888892       2.52484954       0.00000000
Si      -0.12688281      -2.59748939       2.70035035       0.00000000
Si       2.69980688      -2.64683180      -0.00657437       0.00000000
Si       2.62293437       0.14046867       2.76033421       0.00000000
Si       2.69855255       2.71041167      -0.08441958       0.00000000
