10
Lattice="16.2900001489832 0.0 0.0 0.0 16.2900001489832 0.0 0.0 0.0 29.0901391577881" Properties=species:S:1:pos:R:3:initial_magmoms:R:1 pbc="T T T"
Si       1.37253025       1.33661080      -1.35641501       0.00000000
Si       1.37997478      -1.34086249       1.34524440       0.00000000
Si      -1.35291709      -1.36493911      -1.35306964       0.00000000
Si      -1.35843940       1.37337733       1.34454623       0.00000000
Si       0.01151703      -2.67478544       2.69421233       0.00000000
Si       0.00917127       2.68441283      -2.70008854       0.00000000
Si      -2.72129502       2.70422147      -0.02138125       0.00000000
Si      -2.72321887      -2.70246215      -0.00351991       0.00000000
Si       2.72249885       2.70381422      -0.00811615       0.00000000
Si       0.00373041       2.71687880       2.70951374       0.00000000
