10
Lattice="16.2900001489832 0.0 0.0 0.0 16.2900001489832 0.0 0.0 0.0 29.0901391577881" Properties=species:S:1:pos:R:3:initial_magmoms:R:1 pbc="T T T"
Si      -1.44710587       1.21362130      -1.36883650       0.00000000
Si       1.52806717      -1.38357487      -1.10461076       0.00000000
Si      -1.50205204      -1.34456032       1.24630883       0.00000000
Si       1.36842517       1.53490897       1.21849866       0.00000000
H       -2.63713925      -0.35787501       1.56714398       0.00000000
H        0.49808304      -3.30094047       0.53255318       0.00000000
Si       2.65225637       0.07187148       2.46605837       0.00000000
Si       3.28871645      -1.42074540       0.70700674       0.00000000
Si      -0.07956036       2.57193038      -2.70933920       0.00000000
Si      -2.77988853       2.55234980       0.04037711       0.00000000
