10
Lattice="16.2900001489832 0.0 0.0 0.0 16.2900001489832 0.0 0.0 0.0 29.0901391577881" Properties=species:S:1:pos:R:3:initial_magmoms:R:1 pbc="T T T"
Si       0.99750187       1.10965852       0.34192550       0.00000000
Si      -0.11403000      -2.28235934      -0.99313735       0.00000000
H       -2.24533217       0.76962106      -1.40778819       0.00000000
Si      -0.07226244      -2.51203205       1.29413302       0.00000000
Si       1.56520837      -1.13642299      -2.16733173       0.00000000
Si       2.88621336       0.19347633      -0.70619222       0.00000000
Si      -1.26138358       1.57097503      -2.25911112       0.00000000
Si       0.18034659       2.86471056      -0.96157455       0.00000000
Si      -1.50294799      -1.13637412       2.51618068       0.00000000
Si       0.83676844       1.60534693       2.64289732       0.00000000
