10
Lattice="16.2900001489832 0.0 0.0 0.0 16.2900001489832 0.0 0.0 0.0 29.0901391577881" Properties=species:S:1:pos:R:3:initial_magmoms:R:1 pbc="T T T"
Si      -0.44795871       1.74371420      -1.46128496       0.00000000
Si      -0.91854424       0.47027601       2.07811227       0.00000000
Si      -1.12754494      -1.87753655      -0.79288083       0.00000000
Si       2.29405719      -0.27248283       0.41133457       0.00000000
Si       2.57243212      -0.29186793      -2.01309581       0.00000000
Si      -0.76245346      -1.74918764       2.88652724       0.00000000
Si      -2.82004338      -0.82113004      -1.99852165       0.00000000
Si      -2.41246757       2.61342101      -0.55960701       0.00000000
Si      -1.43920522      -3.16115598       1.10935246       0.00000000
Si      -1.40755375       0.54522630      -3.32878462       0.00000000
