10
Lattice="16.2900001489832 0.0 0.0 0.0 16.2900001489832 0.0 0.0 0.0 29.0901391577881" Properties=species:S:1:pos:R:3:initial_magmoms:R:1 pbc="T T T"
Si       1.38471517       1.33237540      -1.33667735       0.00000000
Si      -1.34814412       1.34899120       1.36633475       0.00000000
Si       1.38274408      -1.35957970       1.32284499       0.00000000
Si      -1.37541358      -1.35664750      -1.33699152       0.00000000
Si       0.01886382       2.66971925      -2.67058241       0.00000000
Si      -2.66917354      -2.67149486       0.10097187       0.00000000
Si       2.64798839      -0.06716367      -2.73017647       0.00000000
Si       0.04294044      -2.70391196       2.69895402       0.00000000
Si       2.75224440       0.01083285       2.65392249       0.00000000
Si       0.02422323       2.73864224       2.67867819       0.00000000
