10
Lattice="16.2900001489832 0.0 0.0 0.0 16.2900001489832 0.0 0.0 0.0 29.0901391577881" Properties=species:S:1:pos:R:3:initial_magmoms:R:1 pbc="T T T"
Si      -1.39452175      -1.29155266       1.36048763       0.00000000
Si       1.35988433       1.34154667       1.35248784       0.00000000
Si      -1.38264634       1.37973043      -1.29209671       0.00000000
Si       1.35561960      -1.38551338      -1.31912145       0.00000000
Si      -0.05664033      -2.63005310       2.72400063       0.00000000
Si      -0.02300148       2.71689509       2.64179190       0.00000000
Si      -0.01557324       2.71797023      -2.64217007       0.00000000
Si      -2.73064386      -0.00187335      -2.64522453       0.00000000
Si       2.71902908      -0.04000824      -2.66384222       0.00000000
Si      -0.00641826      -2.74348038      -2.66084594       0.00000000
