10
Lattice="16.2900001489832 0.0 0.0 0.0 16.2900001489832 0.0 0.0 0.0 29.0901391577881" Properties=species:S:1:pos:R:3:initial_magmoms:R:1 pbc="T T T"
Si       1.44710587      -1.21362130       1.36883650       0.00000000
Si       1.36754551       1.35830908      -1.34050270       0.00000000
Si      -1.33278265       1.33872850       1.40921361       0.00000000
Si      -1.33532389      -1.40665780      -1.34137541       0.00000000
H       -1.19003338      -1.57149631       2.93598047       0.00000000
Si      -0.05494617      -2.55818162       2.61514533       0.00000000
Si      -2.69980688       2.64683180       0.00657437       0.00000000
Si       0.00355122       2.63836100      -2.75437074       0.00000000
Si       2.70674642      -0.03567510      -2.69493958       0.00000000
Si       0.08575056      -2.80270919      -2.60289838       0.00000000
