10
Lattice="16.2900001489832 0.0 0.0 0.0 16.2900001489832 0.0 0.0 0.0 29.0901391577881" Properties=species:S:1:pos:R:3:initial_magmoms:R:1 pbc="T T T"
Si      -1.36216981      -1.34350147      -1.36496751       0.00000000
Si      -1.33027399       1.41833773       1.32374678       0.00000000
Si       1.35961228       1.34387614      -1.37081463       0.00000000
Si       1.36650295      -1.34908894       1.38009438       0.00000000
H       -1.56730978      -1.23802372       2.81604183       0.00000000
Si      -2.56822604      -0.09301590       2.60647647       0.00000000
Si      -2.73991124      -2.65502567       0.00738890       0.00000000
Si       2.68424993       0.03292209       2.71847350       0.00000000
Si       2.72137484      -2.69563664       0.00034908       0.00000000
Si       2.69545745       2.72745101      -0.02344665       0.00000000
