10
Lattice="16.2900001489832 0.0 0.0 0.0 16.2900001489832 0.0 0.0 0.0 29.0901391577881" Properties=species:S:1:pos:R:3:initial_magmoms:R:1 pbc="T T T"
Si       1.20847366      -1.40247453      -1.36415299       0.00000000
Si      -1.06865659      -1.59322066       1.29913652       0.00000000
Si       1.59762547       1.20946735       1.21544419       0.00000000
Si      -1.47336535       1.22764699      -1.38082164       0.00000000
H       -3.22023981      -0.28388583      -0.07272535       0.00000000
Si       0.19479582       2.58971906       2.51827626       0.00000000
Si      -2.42018903      -0.39307770       2.76993367       0.00000000
Si      -0.04675230       2.51515973      -2.78276271       0.00000000
Si       2.62115876      -0.15591159      -2.72350610       0.00000000
Si      -2.26854542      -3.06142860      -0.06260198       0.00000000
