10
Lattice="16.2900001489832 0.0 0.0 0.0 16.2900001489832 0.0 0.0 0.0 29.0901391577881" Properties=species:S:1:pos:R:3:initial_magmoms:R:1 pbc="T T T"
Si       1.06865659       1.59322066      -1.29913652       0.00000000
Si       1.39242034      -1.35272813       1.28767065       0.00000000
Si      -1.35153244       1.20014296       1.47079714       0.00000000
Si      -1.19988883      -1.46820794      -1.36173850       0.00000000
H       -2.15158322       1.30933483      -1.37186187       0.00000000
Si      -2.95941247       1.65251626      -0.13686910       0.00000000
Si       2.27713025       0.19074613      -2.66328951       0.00000000
Si      -2.58707031      -2.60324628       0.09160485       0.00000000
Si       2.72223821       0.03883373       2.62112626       0.00000000
Si       0.03334563      -2.68011879       2.67781422       0.00000000
