10
Lattice="16.2900001489832 0.0 0.0 0.0 16.2900001489832 0.0 0.0 0.0 29.0901391577881" Properties=species:S:1:pos:R:3:initial_magmoms:R:1 pbc="T T T"
Si       1.32597180      -1.42503292      -1.27687675       0.00000000
Si       1.37496561       1.27863469       1.42126275       0.00000000
Si      -1.32973642      -1.41501457       1.33332326       0.00000000
Si      -1.42161202       1.17630091      -1.58344318       0.00000000
Si      -2.12903786      -0.85942783      -2.75747756       0.00000000
Si      -2.55997352       2.59553459       0.00265302       0.00000000
Si      -0.27836352      -2.58797603      -2.56564206       0.00000000
Si       2.76455964      -0.11424177      -2.57841496       0.00000000
Si      -2.66233988      -0.03192840       2.68968008       0.00000000
Si       2.79339294       2.59095710       0.12340037       0.00000000
