10
Lattice="10.86 0.0 0.0 0.0 10.86 0.0 0.0 0.0 10.86" Properties=species:S:1:pos:R:3:initial_magmoms:R:1 pbc="T T T"
Si      -1.21671096      -1.27236846      -1.36753464       0.00000000
Si      -1.21671096       1.44263154       1.34746536       0.00000000
Si       1.49828904       1.44263154      -1.36753464       0.00000000
Si      -2.57421096      -2.62986846      -0.01003464       0.00000000
Si      -2.57421096       0.08513154       2.70496536       0.00000000
Si      -2.57421096       0.08513154      -2.72503464       0.00000000
Si       0.14078904      -2.62986846      -2.72503464       0.00000000
Si      -2.57421096       2.80013154      -0.01003464       0.00000000
Si       0.11871066      -2.72132052       2.74888320       0.00000000
Si       0.14078904       2.80013154       2.70496536       0.00000000
