10
Lattice="10.86 0.0 0.0 0.0 10.86 0.0 0.0 0.0 10.86" Properties=species:S:1:pos:R:3:initial_magmoms:R:1 pbc="T T T"
Si      -1.18071006      -1.39403304       1.40032098       0.00000000
Si       1.53428994      -1.39403304      -1.31467902       0.00000000
Si       1.53428994       1.32096696       1.40032098       0.00000000
Si      -2.47139934       2.57414580      -0.00399648       0.00000000
Si      -2.54556228      -2.54103366      -0.22429158       0.00000000
Si       0.19644654      -2.37079230      -2.76612888       0.00000000
Si      -2.53821006      -0.03653304       2.75782098       0.00000000
Si       0.17678994       2.67846696       2.75782098       0.00000000
Si       0.17678994      -2.75153304       2.75782098       0.00000000
Si       2.89178994      -0.03653304      -2.67217902       0.00000000
