10
Lattice="10.86 0.0 0.0 0.0 10.86 0.0 0.0 0.0 10.86" Properties=species:S:1:pos:R:3:initial_magmoms:R:1 pbc="T T T"
Si      -1.27799394       1.14187470      -1.36006296       0.00000000
Si       1.43700606       1.14187470       1.35493704       0.00000000
Si       1.43700606      -1.57312530      -1.36006296       0.00000000
Si      -2.63549394       2.49937470      -0.00256296       0.00000000
Si       0.07950606       2.49937470       2.71243704       0.00000000
Si       0.07950606       2.49937470      -2.71756296       0.00000000
Si      -2.56868322      -0.31994646       2.66561958       0.00000000
Si      -2.53886166      -0.43527966      -2.68487436       0.00000000
Si       2.79450606       2.49937470      -0.00256296       0.00000000
Si       2.79450606      -0.21562530       2.71243704       0.00000000
