10
Lattice="16.28999089631971 0.0 0.0 0.0 16.28999089631971 0.0 0.0 0.0 34.35334932831803" Properties=species:S:1:pos:R:3:initial_magmoms:R:1 pbc="T T T"
Si      -1.46449853       1.13559056       1.50909195       0.00000000
Si      -1.84917794      -0.84175643      -1.27942735       0.00000000
Si       1.22542014      -1.56357189       1.46187668       0.00000000
Si       1.55856693       1.39017068      -1.57833601       0.00000000
Si      -2.74473698       2.48909408       0.14724197       0.00000000
Si       2.78385186       2.56124249       0.11781488       0.00000000
Si      -0.89651526      -0.43187885      -3.66152428       0.00000000
Si      -0.14100298       2.49368786       2.85793574       0.00000000
Si       2.57476971      -0.22014469       2.85219873       0.00000000
Si      -2.73962192      -2.79848421       0.03374188       0.00000000
