10
Lattice="16.28999089631971 0.0 0.0 0.0 16.28999089631971 0.0 0.0 0.0 34.35334932831803" Properties=species:S:1:pos:R:3:initial_magmoms:R:1 pbc="T T T"
Si      -1.01906982       1.25814186      -1.71461098       0.00000000
Si      -1.63163898       0.39170934       1.65782486       0.00000000
Si       2.18095407       0.87812874       0.19780670       0.00000000
Si      -0.43422624      -2.32167686      -0.12192010       0.00000000
Si      -3.34161657      -0.61212933       0.34205649       0.00000000
Si      -2.94425460       0.01013238      -1.97871967       0.00000000
Si       2.44279953       1.75198950      -1.92306722       0.00000000
Si       1.09903743      -3.22307750       1.39962494       0.00000000
Si      -0.78644862       3.47007951      -0.94942405       0.00000000
Si       1.70248419       0.08472429      -3.39490294       0.00000000
