10
Lattice="16.28999089631971 0.0 0.0 0.0 16.28999089631971 0.0 0.0 0.0 34.35334932831803" Properties=species:S:1:pos:R:3:initial_magmoms:R:1 pbc="T T T"
Si       0.11961747       0.79264045       2.19054254       0.00000000
Si       2.11005999       0.85224556      -0.57686176       0.00000000
Si      -1.66718376       1.35434571      -1.10009792       0.00000000
Si      -0.34340949      -2.38890799       0.11841606       0.00000000
Si      -2.04547014       0.27343417       2.92738795       0.00000000
Si      -3.50536365      -0.06559168      -0.92616682       0.00000000
Si       3.72896019      -0.22040533       0.76972158       0.00000000
Si       2.55699243       0.48250165      -2.83721035       0.00000000
Si       1.70108325      -3.46820194      -0.45988854       0.00000000
Si       0.55384371       3.11431731       2.31246265       0.00000000
