10
Lattice="16.28999089631971 0.0 0.0 0.0 16.28999089631971 0.0 0.0 0.0 34.35334932831803" Properties=species:S:1:pos:R:3:initial_magmoms:R:1 pbc="T T T"
Si       1.45577214      -1.89357892      -0.22274724       0.00000000
Si       1.23567795       2.00184552       0.50492581       0.00000000
Si      -0.98960121       0.66857418      -2.10383464       0.00000000
Si      -1.46184831       0.09819612       2.01509989       0.00000000
Si      -2.00508723       2.65655691      -1.45792261       0.00000000
Si      -0.13374090       3.65889690      -0.46624392       0.00000000
Si       0.05725935      -3.66981839       0.45154068       0.00000000
Si       0.64203777       0.27686484      -3.76165950       0.00000000
Si       1.51803252       2.35473579       2.83006485       0.00000000
Si      -1.92880116      -3.43812572      -0.92101381       0.00000000
