10
Lattice="16.28999089631971 0.0 0.0 0.0 16.28999089631971 0.0 0.0 0.0 34.35334932831803" Properties=species:S:1:pos:R:3:initial_magmoms:R:1 pbc="T T T"
Si       1.35708732      -1.35811359      -1.36578687       0.00000000
Si      -1.35759231       1.35972630      -1.36623347       0.00000000
Si      -1.36725228      -1.35159759       1.38966246       0.00000000
Si       1.35430173       1.36357074       1.39684232       0.00000000
Si       2.71510317      -2.71355562      -0.00824481       0.00000000
Si      -2.71632492       2.71274112      -0.00814175       0.00000000
Si       2.71604799       2.71531494      -0.00384758       0.00000000
Si      -2.71740006      -2.71445157      -0.00594313       0.00000000
Si      -2.71552671       0.00057015      -2.72202351       0.00000000
Si      -0.00039096       2.71515204      -2.72247010       0.00000000
