10
Lattice="16.28999089631971 0.0 0.0 0.0 16.28999089631971 0.0 0.0 0.0 34.35334932831803" Properties=species:S:1:pos:R:3:initial_magmoms:R:1 pbc="T T T"
Si      -0.47592864      -0.74538153      -2.15962451       0.00000000
Si       1.89400572      -1.30153842       0.53079390       0.00000000
Si       0.76996314       2.17935765      -0.47758053       0.00000000
Si      -0.82754829      -0.12812085       2.21108586       0.00000000
Si       2.63432106       0.36572679       2.00262962       0.00000000
Si       1.39608558       2.46470958       1.76301487       0.00000000
Si       1.83164760      -0.44667180      -2.89581720       0.00000000
Si       2.55694356       1.60366905      -1.93083108       0.00000000
Si      -2.75273307      -1.37613033       1.94697716       0.00000000
Si      -0.59492709       2.08381680       2.97627279       0.00000000
