10
Lattice="16.28999089631971 0.0 0.0 0.0 16.28999089631971 0.0 0.0 0.0 34.35334932831803" Properties=species:S:1:pos:R:3:initial_magmoms:R:1 pbc="T T T"
Si       0.47592864       0.74538153       2.15962451       0.00000000
Si      -0.97088400      -2.12134896       0.33336509       0.00000000
Si      -0.97751403       1.15847964      -1.82759921       0.00000000
Si       2.30757624       0.29870973      -0.73619269       0.00000000
Si       1.24589178       2.92473918       1.68204398       0.00000000
Si       2.36993436      -0.55615689       2.69041841       0.00000000
Si       0.08040744      -0.05978430      -3.67436759       0.00000000
Si      -3.35244942       0.67264668      -1.44954038       0.00000000
Si       3.51697842      -1.09170693       0.68325415       0.00000000
Si       0.69162453      -3.69474305      -0.18914965       0.00000000
