10
Lattice="16.28999089631971 0.0 0.0 0.0 16.28999089631971 0.0 0.0 0.0 34.35334932831803" Properties=species:S:1:pos:R:3:initial_magmoms:R:1 pbc="T T T"
Si       1.29246489       1.38311874       1.34746076       0.00000000
Si      -1.34190504      -1.38569256       1.34849480       0.00000000
Si       0.99254970      -1.35343836      -1.78032897       0.00000000
Si      -1.97926758       1.52368515      -0.11662969       0.00000000
Si      -2.83677318      -0.40055481      -1.40807587       0.00000000
Si      -0.60963696       2.83476951      -1.58080461       0.00000000
Si       2.41008921      -2.63805147      -0.25782203       0.00000000
Si       1.92293676       2.29741128      -2.05529333       0.00000000
Si      -2.56718997      -2.55676437      -0.34765609       0.00000000
Si       2.51359587      -0.09332541       2.72882689       0.00000000
