10
Lattice="16.28999089631971 0.0 0.0 0.0 16.28999089631971 0.0 0.0 0.0 34.35334932831803" Properties=species:S:1:pos:R:3:initial_magmoms:R:1 pbc="T T T"
Si       1.35726651       1.35685926      -1.35730159       0.00000000
Si      -1.35812988      -1.35817875      -1.35671758       0.00000000
Si      -1.35878148       1.35597960       1.35860702       0.00000000
Si       1.35830907      -1.35801585       1.36190494       0.00000000
Si      -0.00070047       2.71440270      -2.71429400       0.00000000
Si       2.71345788       2.71526607      -0.00024047       0.00000000
Si      -2.71533123      -2.71360449      -0.00048095       0.00000000
Si       2.71458189      -0.00057015      -2.71439706       0.00000000
Si       2.71313208      -2.71588509      -0.00044659       0.00000000
Si      -2.71595025      -0.00057015      -2.71415659       0.00000000
