10
Lattice="16.28999089631971 0.0 0.0 0.0 16.28999089631971 0.0 0.0 0.0 34.35334932831803" Properties=species:S:1:pos:R:3:initial_magmoms:R:1 pbc="T T T"
Si      -0.93584421      -1.62629586      -1.45524304       0.00000000
Si       1.78766460       0.93458988      -1.46657966       0.00000000
Si      -1.77214023       1.77315021       0.26108560       0.00000000
Si       0.45144477      -1.78245180       1.78032897       0.00000000
Si      -2.85620715      -2.29470714      -0.04558692       0.00000000
Si      -2.10489606      -0.30662667      -3.01890532       0.00000000
Si      -3.32346951       1.08779733      -1.54785973       0.00000000
Si       0.60618348       2.42136189      -2.98503290       0.00000000
Si       2.33370540       2.63179611       1.69200646       0.00000000
Si       2.85019614      -1.91651850       1.91880740       0.00000000
