10
Lattice="16.28999089631971 0.0 0.0 0.0 16.28999089631971 0.0 0.0 0.0 34.35334932831803" Properties=species:S:1:pos:R:3:initial_magmoms:R:1 pbc="T T T"
Si      -2.29439763       0.18969705       0.50664348       0.00000000
Si       0.74230272      -2.22875382       0.27286881       0.00000000
Si       1.70997759       1.00383867       1.31576837       0.00000000
Si       0.39736197       0.62226171      -2.32077616       0.00000000
Si      -0.90241713      -2.99792105      -1.25142451       0.00000000
Si       2.90739033      -1.70954753      -0.46397660       0.00000000
Si       3.34161657       0.61212933      -0.34205649       0.00000000
Si      -2.86135642      -1.81060581      -0.61179914       0.00000000
Si      -2.10305529       0.14092479       2.82714482       0.00000000
Si       2.32254675       1.87027119      -2.05666747       0.00000000
