10
Lattice="16.28999089631971 0.0 0.0 0.0 16.28999089631971 0.0 0.0 0.0 34.35334932831803" Properties=species:S:1:pos:R:3:initial_magmoms:R:1 pbc="T T T"
Si       1.79374077       1.05347430       1.18276381       0.00000000
Si      -1.13727006      -1.81801287       1.20921933       0.00000000
Si      -1.52717121       1.93230351       0.00322509       0.00000000
Si       0.03772764      -1.44140436      -2.25864470       0.00000000
Si      -2.28268512      -0.22602375       2.59044461       0.00000000
Si       0.45682047       2.50636936       2.58718104       0.00000000
Si      -3.48881301       1.22600169       1.14600570       0.00000000
Si      -1.63131318       2.80677907      -2.18763629       0.00000000
Si       0.44233866      -2.93358465       2.58178069       0.00000000
Si       3.09567015       2.47805109      -0.26202692       0.00000000
