10
Lattice="16.28999089631971 0.0 0.0 0.0 16.28999089631971 0.0 0.0 0.0 34.35334932831803" Properties=species:S:1:pos:R:3:initial_magmoms:R:1 pbc="T T T"
Si       1.20612789      -1.45202544       1.44443891       0.00000000
Si       1.96164180       0.70630182      -1.14278061       0.00000000
Si      -1.35267273      -1.46381940      -1.31283944       0.00000000
Si      -1.49486814       1.29199248       1.41716234       0.00000000
Si       2.62726749       2.65768974       0.03018630       0.00000000
Si       2.57298921      -0.07921827       2.80645378       0.00000000
Si       2.35154295      -3.04401456       0.06321363       0.00000000
Si      -0.14551857       2.63541968       2.80748438       0.00000000
Si       3.48881301      -1.22600169      -1.14600570       0.00000000
Si      -2.81807715      -2.72837952       0.08836717       0.00000000
