10
Lattice="16.28999089631971 0.0 0.0 0.0 16.28999089631971 0.0 0.0 0.0 34.35334932831803" Properties=species:S:1:pos:R:3:initial_magmoms:R:1 pbc="T T T"
Si      -1.31549895       1.32379056      -1.53576734       0.00000000
Si       1.40916645      -1.36699164      -1.52353754       0.00000000
Si       0.62626905       1.99928799       1.35180505       0.00000000
Si      -0.96915726      -2.01520332       1.72258096       0.00000000
Si      -2.52048654      -2.70055620      -0.08636437       0.00000000
Si       2.66232357       2.59457346      -0.23745048       0.00000000
Si      -2.71184517       2.60460810      -0.05101475       0.00000000
Si       2.59064757      -2.85376365      -0.00508430       0.00000000
Si      -2.66367564      -0.01638774      -2.91955538       0.00000000
Si       0.05132979       2.69764144      -2.92044857       0.00000000
