10
Lattice="16.28999089631971 0.0 0.0 0.0 16.28999089631971 0.0 0.0 0.0 34.35334932831803" Properties=species:S:1:pos:R:3:initial_magmoms:R:1 pbc="T T T"
Si       1.39851279       1.77623946      -0.67428792       0.00000000
Si      -1.98606051       0.23169267      -1.37255449       0.00000000
Si       0.88158222      -2.25640935      -0.28575132       0.00000000
Si      -1.53901404      -0.93486681       1.76758387       0.00000000
Si       1.79644491       1.05412820       2.54513801       0.00000000
Si      -0.62084448       0.69320044       3.21970076       0.00000000
Si       1.68381585       0.72360573      -2.81357524       0.00000000
Si      -2.70000234      -2.05679169      -1.33772017       0.00000000
Si      -1.15647597      -3.49285293      -0.18942447       0.00000000
Si      -0.05725935       3.66981839      -0.45154068       0.00000000
