10
Lattice="16.28999089631971 0.0 0.0 0.0 16.28999089631971 0.0 0.0 0.0 34.35334932831803" Properties=species:S:1:pos:R:3:initial_magmoms:R:1 pbc="T T T"
Si       0.91816956       1.62806725       1.45211689       0.00000000
Si       0.34059132      -2.34222507       0.47091598       0.00000000
Si      -2.39378292      -0.40526262       0.07296655       0.00000000
Si       1.53901404       0.93486681      -1.76758387       0.00000000
Si      -2.30819526       1.91890077       0.00412240       0.00000000
Si       0.38253807      -2.55798612      -1.95700834       0.00000000
Si      -0.44704647       1.16655948      -3.14013836       0.00000000
Si       2.42059626      -1.32154254      -2.05333519       0.00000000
Si      -1.16098830      -1.12192488      -3.10530404       0.00000000
Si      -0.92204658       3.16591982       1.38478429       0.00000000
