10
Lattice="16.28999089631971 0.0 0.0 0.0 16.28999089631971 0.0 0.0 0.0 34.35334932831803" Properties=species:S:1:pos:R:3:initial_magmoms:R:1 pbc="T T T"
Si      -0.33138747       1.65089376      -1.65548883       0.00000000
Si      -0.37486548       0.90600093       2.18727897       0.00000000
Si       2.26181763      -0.68461983      -0.64728617       0.00000000
Si      -2.10204531      -1.24718195       0.25479893       0.00000000
Si       1.79481591       1.38114765       2.99310594       0.00000000
Si       2.04162570      -1.33823490      -2.89963042       0.00000000
Si      -0.83105064       0.62864739      -3.75846464       0.00000000
Si      -1.59514938      -3.58411670       0.55010049       0.00000000
Si      -2.13721542      -0.56550735       3.35999992       0.00000000
Si       1.56370968       3.07949418      -2.13004626       0.00000000
