10
Lattice="16.28999089631971 0.0 0.0 0.0 16.28999089631971 0.0 0.0 0.0 34.35334932831803" Properties=species:S:1:pos:R:3:initial_magmoms:R:1 pbc="T T T"
Si       1.38614868       1.24701905       1.38066188       0.00000000
Si      -0.08558766      -2.32416339       0.06884415       0.00000000
Si      -0.00741195       0.44049789      -2.29112921       0.00000000
Si      -2.24793855       0.55207462       1.07539785       0.00000000
Si       2.30819526      -1.91890077      -0.00412240       0.00000000
Si      -1.88243656      -0.92866425      -2.67832602       0.00000000
Si      -3.37408973      -0.43214145      -0.87295345       0.00000000
Si       3.22636482      -0.29083351       1.44799448       0.00000000
Si       2.32810164       2.78398055      -0.20814706       0.00000000
Si      -0.91183275      -2.96559843      -2.04306353       0.00000000
