10
Lattice="16.28999089631971 0.0 0.0 0.0 16.28999089631971 0.0 0.0 0.0 34.35334932831803" Properties=species:S:1:pos:R:3:initial_magmoms:R:1 pbc="T T T"
Si      -1.25190279       1.34631963       1.45898069       0.00000000
Si      -1.35540945      -1.19840643      -1.52766823       0.00000000
Si       0.90549594       1.87103682      -1.14450618       0.00000000
Si       1.47294180      -1.36778985       1.42137406       0.00000000
Si       0.52699779      -2.18838231      -2.64274422       0.00000000
Si      -2.54369979      -2.70516464       0.03573437       0.00000000
Si      -2.47303377       2.82276378       0.07761457       0.00000000
Si      -2.59846677      -0.00988803       2.81636473       0.00000000
Si       2.79707445       2.70674640       0.06891286       0.00000000
Si       0.11614770       2.70114264       2.81361646       0.00000000
