10
Lattice="16.28999089631971 0.0 0.0 0.0 16.28999089631971 0.0 0.0 0.0 34.35334932831803" Properties=species:S:1:pos:R:3:initial_magmoms:R:1 pbc="T T T"
Si      -1.32349555      -1.35809730      -1.34884379       0.00000000
Si      -1.35293893       1.35982404       1.35427849       0.00000000
Si       1.36055872      -1.35366642       1.35513733       0.00000000
Si       1.37218978       1.35290079      -1.37186398       0.00000000
Si      -2.60373400      -0.00459378      -2.71069377       0.00000000
Si       0.14100298      -2.49368786      -2.85793574       0.00000000
Si      -2.71235572       0.00223173       2.71182056       0.00000000
Si       0.00205743      -2.71247559       2.71185491       0.00000000
Si      -2.71224169      -2.71468615      -0.00621796       0.00000000
Si      -2.71289329       2.71604799      -0.00666455       0.00000000
