10
Lattice="16.28999089631971 0.0 0.0 0.0 16.28999089631971 0.0 0.0 0.0 34.35334932831803" Properties=species:S:1:pos:R:3:initial_magmoms:R:1 pbc="T T T"
Si       0.33138747      -1.65089376       1.65548883       0.00000000
Si      -1.68357150       1.64059848       0.39526986       0.00000000
Si      -0.49966317      -1.02224637      -2.10297581       0.00000000
Si       1.89509715       1.42860042      -0.47455743       0.00000000
Si       1.74516399      -1.27347075      -2.84796296       0.00000000
Si       2.59320510      -2.33551359       1.00820266       0.00000000
Si      -2.21728077       2.35488240      -1.75501054       0.00000000
Si      -2.25971622       0.32151573      -2.90495520       0.00000000
Si       0.98455131       3.57759351      -0.40980133       0.00000000
Si      -0.58666806       3.51945450       1.33328859       0.00000000
