10
Lattice="16.28999089631971 0.0 0.0 0.0 16.28999089631971 0.0 0.0 0.0 34.35334932831803" Properties=species:S:1:pos:R:3:initial_magmoms:R:1 pbc="T T T"
Si      -1.46489454       1.24416504       1.35486250       0.00000000
Si       1.34198649       1.37018448      -1.37241707       0.00000000
Si      -1.37870415      -1.34231229      -1.36692053       0.00000000
Si       1.26337095      -1.44466236       1.51354071       0.00000000
Si      -2.44056780      -0.52768197       2.75410955       0.00000000
Si       2.68721469       2.70487305      -0.00151155       0.00000000
Si       2.68718211      -2.70697446       0.00865705       0.00000000
Si       2.69441487       0.01360215      -2.72923772       0.00000000
Si      -0.01817964      -2.70283680      -2.72827582       0.00000000
Si      -0.42661881      -2.17634400       3.13910776       0.00000000
