10
Lattice="16.28999089631971 0.0 0.0 0.0 16.28999089631971 0.0 0.0 0.0 34.35334932831803" Properties=species:S:1:pos:R:3:initial_magmoms:R:1 pbc="T T T"
Si       1.36725228       1.35159759      -1.38966246       0.00000000
Si      -1.35014778      -1.36285398      -1.39560560       0.00000000
Si       1.34644995      -1.37784078       1.44905944       0.00000000
Si      -1.41369507       1.44985887       1.59141980       0.00000000
Si      -2.69203327       2.70347211      -0.02926907       0.00000000
Si      -2.69153154      -2.71836443      -0.01143967       0.00000000
Si       2.72031597      -2.71188915      -0.02339464       0.00000000
Si       2.72155401       2.71516833       0.00717985       0.00000000
Si      -2.70500989      -0.00612504      -2.75469356       0.00000000
Si       2.62930374       0.05818788       2.83212605       0.00000000
