10
Lattice="16.28999089631971 0.0 0.0 0.0 16.28999089631971 0.0 0.0 0.0 34.35334932831803" Properties=species:S:1:pos:R:3:initial_magmoms:R:1 pbc="T T T"
Si       1.12884813      -1.21295340       1.62316231       0.00000000
Si       1.39364208       0.00524538      -1.91097483       0.00000000
Si       0.12098583       2.32737252       0.56133404       0.00000000
Si      -2.04227730      -0.94903911      -0.87264427       0.00000000
Si      -0.68124780      -0.65264256       3.08915796       0.00000000
Si      -1.87530480       0.04722471      -3.03233749       0.00000000
Si      -1.41227784       3.22877315      -0.96021100       0.00000000
Si       2.28064887       2.86785354      -0.11103009       0.00000000
Si       0.16918794      -1.03206924      -3.61064209       0.00000000
Si      -1.71103644      -3.26003625      -1.35802301       0.00000000
