10
Lattice="16.28999089631971 0.0 0.0 0.0 16.28999089631971 0.0 0.0 0.0 34.35334932831803" Properties=species:S:1:pos:R:3:initial_magmoms:R:1 pbc="T T T"
Si       1.35848826      -1.35527980       1.36053081       0.00000000
Si      -1.35775521       1.36040071       1.36039339       0.00000000
Si       1.38874614       1.35658885      -1.34262583       0.00000000
Si      -1.35974259      -1.36362028      -1.37080590       0.00000000
Si       0.11362275      -2.57748592      -2.81797590       0.00000000
Si       0.10850769       2.71009237      -2.70447581       0.00000000
Si      -2.71322982      -2.71119424       0.00274827       0.00000000
Si       2.71224169       2.71468615       0.00621796       0.00000000
Si       2.71273039      -2.71730299       0.00182073       0.00000000
Si      -0.00043983      -2.71306759       2.71800416       0.00000000
