10
Lattice="16.28999089631971 0.0 0.0 0.0 16.28999089631971 0.0 0.0 0.0 34.35334932831803" Properties=species:S:1:pos:R:3:initial_magmoms:R:1 pbc="T T T"
Si      -2.30721786      -0.29455578       0.14232601       0.00000000
Si       0.33001911      -1.97462004      -1.22249897       0.00000000
Si       0.82994292       0.45527292       2.17178560       0.00000000
Si       0.64581705       1.60371792      -1.74394875       0.00000000
Si       2.37473991      -1.60060653      -2.31497044       0.00000000
Si       2.93869971       0.77287905      -2.17707602       0.00000000
Si      -0.52369092       2.21804640       3.00210652       0.00000000
Si       2.84216517       1.64110347       1.89156518       0.00000000
Si       0.99732267       3.73544361       0.23346549       0.00000000
Si      -3.51662004       1.09586088      -1.27712083       0.00000000
