10
Lattice="16.28999089631971 0.0 0.0 0.0 16.28999089631971 0.0 0.0 0.0 34.35334932831803" Properties=species:S:1:pos:R:3:initial_magmoms:R:1 pbc="T T T"
Si       0.73783926      -1.36540876      -1.71643171       0.00000000
Si       1.15062786       2.02313020       0.03449078       0.00000000
Si       0.42318162      -1.52431771       1.76624409       0.00000000
Si      -2.32922565       0.16191950       0.41996993       0.00000000
Si      -1.04454738      -3.14096989       0.96807793       0.00000000
Si      -2.24564166       0.81404567       2.68997182       0.00000000
Si       0.68149215       2.77978441       2.21750994       0.00000000
Si      -0.68289309      -3.29456830      -1.37090552       0.00000000
Si      -0.51466626      -0.48475507       3.64265943       0.00000000
Si      -0.24636996      -0.72596110      -3.73067276       0.00000000
