10
Lattice="16.28999089631971 0.0 0.0 0.0 16.28999089631971 0.0 0.0 0.0 34.35334932831803" Properties=species:S:1:pos:R:3:initial_magmoms:R:1 pbc="T T T"
Si      -0.22019193      -0.65361507      -2.25234425       0.00000000
Si       1.45003806      -1.61589013       1.00098845       0.00000000
Si       1.74539205       1.63577664       0.23738178       0.00000000
Si      -2.26181763       0.68461983       0.64728617       0.00000000
Si       1.67120739       1.57182210       2.65139298       0.00000000
Si      -2.59320510       2.33551359      -1.00820266       0.00000000
Si       2.94169122      -2.11241294      -0.80438412       0.00000000
Si       1.76156802      -1.84753754      -2.83995862       0.00000000
Si      -2.04419952      -2.20249664      -2.43101612       0.00000000
Si       2.57618924      -0.63167407       2.94933975       0.00000000
