10
Lattice="16.28999089631971 0.0 0.0 0.0 16.28999089631971 0.0 0.0 0.0 34.35334932831803" Properties=species:S:1:pos:R:3:initial_magmoms:R:1 pbc="T T T"
Si       1.92036294       0.66841128      -1.40965612       0.00000000
Si      -0.67605129      -1.98179253      -1.34833536       0.00000000
Si      -1.73531017       1.89933255      -0.18688232       0.00000000
Si      -0.44659035      -0.26329527       2.60886351       0.00000000
Si      -0.06590934      -2.64103254       2.11719810       0.00000000
Si       2.30902605      -2.15519958       1.73913928       0.00000000
Si      -1.95438949      -0.72817929      -2.96902423       0.00000000
Si      -3.20361909       0.69677217      -1.60182887       0.00000000
Si       0.75131109       1.98808047      -2.97331840       0.00000000
Si       2.85620715       2.29470714       0.04558692       0.00000000
