10
Lattice="16.28999089631971 0.0 0.0 0.0 16.28999089631971 0.0 0.0 0.0 34.35334932831803" Properties=species:S:1:pos:R:3:initial_magmoms:R:1 pbc="T T T"
Si      -0.68986505      -1.84854033      -1.55538311       0.00000000
Si      -1.63847005      -0.41115960       1.87431979       0.00000000
Si       1.92603349       0.94499919      -1.40460618       0.00000000
Si      -1.62607336       2.00241567      -0.25088265       0.00000000
Si       2.53617544       0.28575918       2.06092728       0.00000000
Si      -2.09266783      -0.51772878      -3.00622893       0.00000000
Si       0.64769529       2.19861243      -3.02529505       0.00000000
Si      -3.46741351       0.88464474      -1.52573616       0.00000000
Si       2.60208478       2.92679172      -0.05627082       0.00000000
Si      -0.67077985       0.53893836       3.83050365       0.00000000
