10
Lattice="16.28999089631971 0.0 0.0 0.0 16.28999089631971 0.0 0.0 0.0 34.35334932831803" Properties=species:S:1:pos:R:3:initial_magmoms:R:1 pbc="T T T"
Si       0.16734717       1.70934228      -1.59846224       0.00000000
Si      -2.20478634       0.66142287       0.63629309       0.00000000
Si       0.62493327      -1.67625729      -1.59537043       0.00000000
Si       1.41986898       0.41143653       2.61539065       0.00000000
Si       3.05297636       0.48176046       0.67445968       0.00000000
Si      -2.34018882      -1.77015285       1.30546236       0.00000000
Si       2.75632569      -0.59903217      -1.62968945       0.00000000
Si      -1.19433393       3.18726882       0.91300948       0.00000000
Si       0.75295638       3.52870722      -0.27719733       0.00000000
Si      -1.87388757       1.55932767      -2.80285698       0.00000000
