10
Lattice="16.28999089631971 0.0 0.0 0.0 16.28999089631971 0.0 0.0 0.0 34.35334932831803" Properties=species:S:1:pos:R:3:initial_magmoms:R:1 pbc="T T T"
Si       1.24931268      -1.43109279       1.37996107       0.00000000
Si      -1.45380105       1.27935144       1.38365749       0.00000000
Si      -1.18154628      -1.42081380      -1.52816979       0.00000000
Si       1.86764850       0.87384447      -1.29877740       0.00000000
Si       0.01829367      -0.75553020      -3.58944061       0.00000000
Si       2.60581356      -0.07236018       2.74203778       0.00000000
Si       2.63217078      -2.74059702      -0.04340205       0.00000000
Si      -2.82550050       2.54886372      -0.03030311       0.00000000
Si      -0.10482615       2.64476295       2.74269050       0.00000000
Si      -2.73411360      -2.68954416      -0.09166509       0.00000000
