10
Lattice="16.28999089631971 0.0 0.0 0.0 16.28999089631971 0.0 0.0 0.0 34.35334932831803" Properties=species:S:1:pos:R:3:initial_magmoms:R:1 pbc="T T T"
Si      -1.35698958       1.35739810       1.35750771       0.00000000
Si       1.35717195      -1.35754344       1.35757642       0.00000000
Si      -1.35775521      -1.35790182      -1.35764512       0.00000000
Si       1.35892809       1.35778779      -1.35747336       0.00000000
Si      -2.71278999       0.00187335      -2.71525589       0.00000000
Si      -0.00154755      -2.71407690       2.71443141       0.00000000
Si      -2.71464705       2.71441640       0.00030918       0.00000000
Si       2.71317022      -0.00423540      -2.71618344       0.00000000
Si       2.71443595      -2.71511946       0.00075577       0.00000000
Si      -2.71505430      -2.71492398       0.00006871       0.00000000
