10
Lattice="16.28999089631971 0.0 0.0 0.0 16.28999089631971 0.0 0.0 0.0 34.35334932831803" Properties=species:S:1:pos:R:3:initial_magmoms:R:1 pbc="T T T"
Si       0.71889629       1.84485879       1.32318870       0.00000000
Si      -1.30746798       1.38219021      -1.47073641       0.00000000
Si       1.43142415      -1.30324887      -1.45129241       0.00000000
Si      -1.24786287      -1.56629979       1.46194195       0.00000000
Si       2.72576402       2.66999616       0.02992178       0.00000000
Si      -2.77335621       2.61993699      -0.08622696       0.00000000
Si      -2.65269618       0.04750164      -2.84164194       0.00000000
Si      -2.73131172      -2.76734520       0.04431585       0.00000000
Si       0.05791095      -2.66654268      -2.83236653       0.00000000
Si       2.91712265      -2.63516814      -0.00542783       0.00000000
