10
Lattice="16.28999089631971 0.0 0.0 0.0 16.28999089631971 0.0 0.0 0.0 34.35334932831803" Properties=species:S:1:pos:R:3:initial_magmoms:R:1 pbc="T T T"
Si      -2.26906668      -0.36740466      -0.12106127       0.00000000
Si       0.91520478      -1.76669937      -1.16365165       0.00000000
Si       0.98420922      -0.63944766       2.01424106       0.00000000
Si       0.22879305       2.09171323      -1.07350841       0.00000000
Si      -0.43652313      -2.56860720       2.35976724       0.00000000
Si      -2.50095483      -2.25694692       1.20532229       0.00000000
Si      -3.25482345       1.59078759       0.54371076       0.00000000
Si       3.11495751      -1.99969524      -0.19523019       0.00000000
Si       0.24636996       0.72596110       3.73067276       0.00000000
Si      -2.96077266      -0.93823884      -2.33455186       0.00000000
