10
Lattice="16.28999089631971 0.0 0.0 0.0 16.28999089631971 0.0 0.0 0.0 34.35334932831803" Properties=species:S:1:pos:R:3:initial_magmoms:R:1 pbc="T T T"
Si      -1.70711544       1.56499659      -0.34051059       0.00000000
Si      -1.05116112      -2.03978493      -0.50801761       0.00000000
Si       0.84100383       0.29447433       2.17618284       0.00000000
Si       1.74638574       0.81111168      -1.37348203       0.00000000
Si      -0.44644374       3.46688667       0.45037266       0.00000000
Si       2.28962466      -1.74724911       2.09954047       0.00000000
Si       2.76187176      -1.17687105      -2.01939406       0.00000000
Si      -3.11721272      -1.71170433       0.67112741       0.00000000
Si       1.23284349       2.71428867       2.06288543       0.00000000
Si      -1.66021978       1.82184102      -2.68141783       0.00000000
