10
Lattice="16.28999089631971 0.0 0.0 0.0 16.28999089631971 0.0 0.0 0.0 34.35334932831803" Properties=species:S:1:pos:R:3:initial_magmoms:R:1 pbc="T T T"
Si       1.70711544      -1.56499659       0.34051059       0.00000000
Si       0.04689565       0.25684443      -2.34090724       0.00000000
Si      -2.03374364      -1.03340502       0.73444067       0.00000000
Si       1.26067170       1.90189008       0.79088325       0.00000000
Si       2.35897608       0.72207054      -2.51621248       0.00000000
Si       0.65595432      -3.60478152      -0.16750702       0.00000000
Si      -1.52352455       1.99314666      -2.68172701       0.00000000
Si       3.45350118      -0.75388491      -1.03297144       0.00000000
Si      -1.41009728      -3.27670092       1.01163800       0.00000000
Si      -2.79725594       0.31467393       2.52071277       0.00000000
