10
Lattice="16.28999089631971 0.0 0.0 0.0 16.28999089631971 0.0 0.0 0.0 34.35334932831803" Properties=species:S:1:pos:R:3:initial_magmoms:R:1 pbc="T T T"
Si      -2.13521012       0.28206135      -0.79404376       0.00000000
Si       0.26958321      -2.15620956       1.06041978       0.00000000
Si       0.94192038       0.29537028      -2.22967103       0.00000000
Si       0.85750560       1.92423996       1.29144618       0.00000000
Si      -2.66653209       0.42834555       1.48627070       0.00000000
Si       2.83677318       0.40055481       1.40807587       0.00000000
Si       1.49486814      -0.98513775       2.75657067       0.00000000
Si      -1.22523443       1.81420101       2.71935223       0.00000000
Si       1.44858825      -3.28331466      -0.71750446       0.00000000
Si       2.39054121      -1.74635316      -2.30631340       0.00000000
