10
Lattice="16.28999089631971 0.0 0.0 0.0 16.28999089631971 0.0 0.0 0.0 34.35334932831803" Properties=species:S:1:pos:R:3:initial_magmoms:R:1 pbc="T T T"
Si       2.31923011       0.16037505       0.47448873       0.00000000
Si      -0.70752424       0.65500461      -2.17683555       0.00000000
Si      -1.19656633       1.49390703       1.41769481       0.00000000
Si      -1.02622180      -2.06581635       0.61427258       0.00000000
Si      -2.94384802      -0.25837569      -1.91032212       0.00000000
Si      -0.31747092       2.96704431      -1.87528168       0.00000000
Si      -2.45923681      -2.47972896      -1.31085584       0.00000000
Si      -1.50814516       3.48102639       0.13267271       0.00000000
Si      -3.31982122       0.55856781       1.90805479       0.00000000
Si       2.94025378      -1.39142664       2.13561151       0.00000000
