10
Lattice="16.28999089631971 0.0 0.0 0.0 16.28999089631971 0.0 0.0 0.0 34.35334932831803" Properties=species:S:1:pos:R:3:initial_magmoms:R:1 pbc="T T T"
Si       0.31048740      -1.45024983       1.72910810       0.00000000
Si      -0.77701671       1.80296484       1.28522822       0.00000000
Si      -1.06264557      -0.96570378      -1.87641534       0.00000000
Si       2.07405909      -0.03337821      -1.20484134       0.00000000
Si       0.49389651       0.44773065      -2.94806867       0.00000000
Si       2.38493745      -0.52035147       2.32981110       0.00000000
Si       1.06116318       3.22290224       1.11129712       0.00000000
Si      -3.00827756       2.08452934       0.50513193       0.00000000
Si      -1.31160564      -0.91311966       3.37291678       0.00000000
Si       0.23139945      -2.95577163      -2.33757496       0.00000000
