10
Lattice="16.28999089631971 0.0 0.0 0.0 16.28999089631971 0.0 0.0 0.0 34.35334932831803" Properties=species:S:1:pos:R:3:initial_magmoms:R:1 pbc="T T T"
Si      -0.39005332      -2.31203970      -0.30155387       0.00000000
Si      -1.19067424       0.51398208       2.00795439       0.00000000
Si      -0.70858798       1.16012493      -2.00317927       0.00000000
Si       2.32160356       0.23441310       0.68363203       0.00000000
Si       0.31747092      -2.96704431       1.87528168       0.00000000
Si      -0.87909541      -1.47313728       3.29297649       0.00000000
Si       2.67136615       2.52035622       0.92520492       0.00000000
Si      -3.13240966       1.26835569      -1.84456977       0.00000000
Si       0.62493164       3.23206210      -2.18415282       0.00000000
Si      -3.44706730       1.10944674       1.63810602       0.00000000
