10
Lattice="16.28999089631971 0.0 0.0 0.0 16.28999089631971 0.0 0.0 0.0 34.3005442915855" Properties=species:S:1:pos:R:3:initial_magmoms:R:1 pbc="T T T"
Si       0.00790065       2.32963031       0.32033296       0.00000000
Si       0.95263920      -0.33627447      -2.12591462       0.00000000
Si       1.43047377      -0.61193385       1.77625468       0.00000000
Si      -1.89051803      -1.51531209       0.22003811       0.00000000
Si      -1.78961777       2.38687663       1.82828863       0.00000000
Si      -0.17159886      -2.32031502      -2.67736478       0.00000000
Si      -0.02987586      -0.48321027       3.60608684       0.00000000
Si      -2.09998300       0.36997848       2.99094053       0.00000000
Si      -2.38471916      -1.94171913      -2.04527400       0.00000000
Si       3.14120070      -1.09538847      -1.76665052       0.00000000
