10
Lattice="16.28999089631971 0.0 0.0 0.0 16.28999089631971 0.0 0.0 0.0 34.3005442915855" Properties=species:S:1:pos:R:3:initial_magmoms:R:1 pbc="T T T"
Si      -1.19738083      -1.36458072      -1.47286619       0.00000000
Si       1.39198702       1.33247313      -1.42206706       0.00000000
Si       0.94013500      -1.88043615       1.14800556       0.00000000
Si      -1.85069128       0.77126634       1.43074510       0.00000000
Si      -2.47992511      -2.62642367       0.09192551       0.00000000
Si      -2.53340518       0.00312768      -2.81727678       0.00000000
Si       0.17394136       2.70855459      -2.83754841       0.00000000
Si       0.18577116      -2.71973768      -2.83202602       0.00000000
Si       2.72661043      -2.83164183      -0.10084366       0.00000000
Si      -3.50995810      -1.01832048       1.58935091       0.00000000
