10
Lattice="16.28999089631971 0.0 0.0 0.0 16.28999089631971 0.0 0.0 0.0 34.3005442915855" Properties=species:S:1:pos:R:3:initial_magmoms:R:1 pbc="T T T"
Si      -0.96441687       0.50388228      -2.05230561       0.00000000
Si      -1.28093157      -0.90197730       1.75762947       0.00000000
Si       2.00811717      -1.25493273       0.13119966       0.00000000
Si       1.46393343       1.94106753       0.35260979       0.00000000
Si       2.88093537       0.01602936       1.97077317       0.00000000
Si       0.96340689       1.20588354      -3.30626561       0.00000000
Si       2.73372264       1.87418079      -1.82026230       0.00000000
Si       0.14252121      -0.64076715       3.92672850       0.00000000
Si      -3.06908976       0.44991351       2.54836036       0.00000000
Si       0.11981295       3.72988872       1.50315359       0.00000000
