10
Lattice="16.28999089631971 0.0 0.0 0.0 16.28999089631971 0.0 0.0 0.0 34.3005442915855" Properties=species:S:1:pos:R:3:initial_magmoms:R:1 pbc="T T T"
Si      -1.24413246      -1.95750414       0.12742659       0.00000000
Si       0.53230833       0.12644298       2.31738037       0.00000000
Si       2.11339944      -0.77542029      -0.78383648       0.00000000
Si      -0.80726724       1.67612697      -1.54198183       0.00000000
Si      -3.27529998      -0.78480333       0.52208888       0.00000000
Si       1.33213104       2.58170436      -2.02994165       0.00000000
Si       3.15894051       1.29567402      -1.08173687       0.00000000
Si       1.53924210      -1.99559016       2.58729150       0.00000000
Si       1.79056422       2.05892568       2.56681407       0.00000000
Si      -1.32154254      -2.89523799      -2.04036902       0.00000000
