10
Lattice="16.28999089631971 0.0 0.0 0.0 16.28999089631971 0.0 0.0 0.0 34.3005442915855" Properties=species:S:1:pos:R:3:initial_magmoms:R:1 pbc="T T T"
Si       1.25825589       1.93248270       0.24943370       0.00000000
Si       1.00693377      -2.12203314       0.26991113       0.00000000
Si      -0.53230833      -0.12644298      -2.31738037       0.00000000
Si      -1.81705176       0.08790084       1.58650396       0.00000000
Si      -0.71065125       3.29491314       0.11326046       0.00000000
Si      -1.77644079      -2.08394712      -2.18995377       0.00000000
Si       1.58109111      -0.90186327      -3.10121684       0.00000000
Si      -0.80369973      -3.49233165      -0.42213703       0.00000000
Si       1.71261657      -2.02768146       2.57089583       0.00000000
Si      -3.68295723       0.38646396       0.17990646       0.00000000
