10
Lattice="16.28999089631971 0.0 0.0 0.0 16.28999089631971 0.0 0.0 0.0 34.3005442915855" Properties=species:S:1:pos:R:3:initial_magmoms:R:1 pbc="T T T"
Si       0.86954391      -2.02390218       0.74662036       0.00000000
Si      -1.84360446      -0.40720113       1.38728629       0.00000000
Si       1.54088739       1.84021614      -0.13631044       0.00000000
Si      -0.70568280      -0.09435168      -2.30098470       0.00000000
Si      -1.35770634      -2.89939194       1.36084055       0.00000000
Si      -1.71261657       2.02768146      -2.57089583       0.00000000
Si      -3.84232230       0.04136031       0.21297220       0.00000000
Si       2.35450773      -2.91566565      -0.89850326       0.00000000
Si       2.87722125       2.12576355       1.73574571       0.00000000
Si      -2.33922771       0.87190596       3.26097313       0.00000000
