10
Lattice="16.28999089631971 0.0 0.0 0.0 16.28999089631971 0.0 0.0 0.0 34.3005442915855" Properties=species:S:1:pos:R:3:initial_magmoms:R:1 pbc="T T T"
Si       0.00661374       0.81148472       2.16995655       0.00000000
Si      -1.65926356      -1.41236811      -0.82551166       0.00000000
Si       1.96577946      -1.28208069       0.08870126       0.00000000
Si      -0.94822461       1.69946891      -1.43252873       0.00000000
Si      -2.93619824       0.39982013      -1.66354303       0.00000000
Si       1.36824597       2.71818035       1.88745711       0.00000000
Si      -0.82460795      -2.24495001      -2.88255075       0.00000000
Si       0.72238005       2.45030759      -2.85902057       0.00000000
Si       1.59866802      -3.16440648       1.58214779       0.00000000
Si       3.77183547      -0.05238701       0.98655281       0.00000000
