10
Lattice="16.28999089631971 0.0 0.0 0.0 16.28999089631971 0.0 0.0 0.0 34.3005442915855" Properties=species:S:1:pos:R:3:initial_magmoms:R:1 pbc="T T T"
Si      -1.77031575      -0.66829725      -1.48600331       0.00000000
Si      -1.26978921       0.06688674       2.17287209       0.00000000
Si       2.04050169      -1.47681882       0.05508670       0.00000000
Si       0.92766663       1.99717029      -1.37147373       0.00000000
Si      -0.32236281      -1.98847143      -2.86234772       0.00000000
Si       1.96687089       1.24897059       2.61641268       0.00000000
Si       1.16791155      -3.26893059      -1.40021760       0.00000000
Si      -0.72560547      -3.12911352       1.95146196       0.00000000
Si      -2.73372264      -1.87418079       1.82026230       0.00000000
Si       2.39334309       0.75717549      -2.86296513       0.00000000
