10
Lattice="16.28999089631971 0.0 0.0 0.0 16.28999089631971 0.0 0.0 0.0 34.3005442915855" Properties=species:S:1:pos:R:3:initial_magmoms:R:1 pbc="T T T"
Si       1.60873524       1.75651812       0.18762408       0.00000000
Si      -0.39886065      -0.49806675       2.31052026       0.00000000
Si      -1.87352919       1.38246714      -0.59724141       0.00000000
Si       1.34412048      -1.78882119      -1.15054380       0.00000000
Si      -0.98689707       1.71888822       2.77320056       0.00000000
Si       0.98714142       2.90305719       2.16560037       0.00000000
Si      -0.08074953       1.58527764      -3.40580585       0.00000000
Si      -3.46004324      -0.21484881      -1.48912466       0.00000000
Si      -2.77174350       2.36201742       1.38210690       0.00000000
Si       1.71896967      -0.96150096       3.46710095       0.00000000
