10
Lattice="16.28999089631971 0.0 0.0 0.0 16.28999089631971 0.0 0.0 0.0 34.3005442915855" Properties=species:S:1:pos:R:3:initial_magmoms:R:1 pbc="T T T"
Si      -1.74671154      -0.81275697      -1.37771643       0.00000000
Si       2.13939828       0.90557739      -0.48795982       0.00000000
Si      -0.63861687       2.29164462       0.24713556       0.00000000
Si       0.80726724      -1.67612697       1.54198183       0.00000000
Si       1.58765598       2.99716452       0.57645527       0.00000000
Si      -3.39467310      -1.06012062       0.33611122       0.00000000
Si       1.91726784       1.09019196      -2.86948224       0.00000000
Si      -1.24338312      -2.93900922      -2.09092805       0.00000000
Si      -2.39539563       2.40231888       1.77423095       0.00000000
Si       2.92066668      -2.45154726       0.75814535       0.00000000
