10
Lattice="16.28999089631971 0.0 0.0 0.0 16.28999089631971 0.0 0.0 0.0 34.3005442915855" Properties=species:S:1:pos:R:3:initial_magmoms:R:1 pbc="T T T"
Si      -0.14336829       0.58191138       2.25145468       0.00000000
Si       0.31705227       2.07976059      -1.02088767       0.00000000
Si      -2.22627285      -0.70551990      -0.32931971       0.00000000
Si       0.55174230      -2.09158713      -1.06441509       0.00000000
Si      -1.58765598      -2.99716452      -0.57645527       0.00000000
Si      -2.99574729       0.85483404      -1.93160193       0.00000000
Si      -1.87150923       2.83887459      -1.38015177       0.00000000
Si      -0.95873166      -1.25193537       3.39616739       0.00000000
Si       2.02419540       1.07735544       3.00500376       0.00000000
Si       1.31427720       1.72087560      -3.15455422       0.00000000
