10
Lattice="16.28999089631971 0.0 0.0 0.0 16.28999089631971 0.0 0.0 0.0 34.3005442915855" Properties=species:S:1:pos:R:3:initial_magmoms:R:1 pbc="T T T"
Si       0.22131594      -2.27783070       0.27509052       0.00000000
Si      -1.59666435       0.36760014      -1.63027148       0.00000000
Si      -0.88086546       0.48578409       2.14893030       0.00000000
Si       2.02650858       1.19232930      -0.34619559       0.00000000
Si       2.85596280       1.20513813       1.82211453       0.00000000
Si       0.92519055       1.71547776       3.04678185       0.00000000
Si       1.93780953      -2.51454069       1.86797439       0.00000000
Si      -3.67125287      -0.47708523      -0.82232171       0.00000000
Si      -0.60391917      -0.02088378      -3.76561876       0.00000000
Si      -1.61220501       2.59606304      -2.35216114       0.00000000
