10
Lattice="16.28999089631971 0.0 0.0 0.0 16.28999089631971 0.0 0.0 0.0 34.3005442915855" Properties=species:S:1:pos:R:3:initial_magmoms:R:1 pbc="T T T"
Si      -1.23927804       1.41069865      -1.40889221       0.00000000
Si       1.34159553       1.35822856       1.37211858       0.00000000
Si      -1.37611404      -1.35294939       1.37177557       0.00000000
Si       1.60764381      -1.21704192      -1.46825277       0.00000000
Si       0.54527517       2.35891349      -2.84666005       0.00000000
Si      -2.47945203      -0.11689677      -2.80265243       0.00000000
Si       2.70671382      -2.71213812       0.00423269       0.00000000
Si       2.70873378       2.71377485       0.00654455       0.00000000
Si       2.69895978       0.00564250       2.73265043       0.00000000
Si      -2.73641049      -2.69575038      -0.02136239       0.00000000
