10
Lattice="16.28999089631971 0.0 0.0 0.0 16.28999089631971 0.0 0.0 0.0 34.3005442915855" Properties=species:S:1:pos:R:3:initial_magmoms:R:1 pbc="T T T"
Si       1.33828866       1.36590021      -1.39126515       0.00000000
Si      -1.37624436      -1.34627076      -1.38780080       0.00000000
Si      -1.24963848       1.42750899       1.44861570       0.00000000
Si       1.46134332      -1.41659469       1.54263354       0.00000000
Si       2.70000234      -2.67959260      -0.03117921       0.00000000
Si       2.68903917       2.72043000      -0.01522945       0.00000000
Si      -2.74522338      -2.69023974      -0.00980996       0.00000000
Si       2.69615790       0.01109349      -2.74754373       0.00000000
Si      -2.73991284       2.70796815      -0.01351442       0.00000000
Si      -0.01840770      -2.70319192      -2.74778384       0.00000000
