10
Lattice="16.28999089631971 0.0 0.0 0.0 16.28999089631971 0.0 0.0 0.0 34.3005442915855" Properties=species:S:1:pos:R:3:initial_magmoms:R:1 pbc="T T T"
Si       1.35633798       1.35596331       1.35737620       0.00000000
Si      -1.35866745       1.35596331      -1.35819941       0.00000000
Si      -1.35887922      -1.35897696       1.35754770       0.00000000
Si       1.35711990      -1.35961227      -1.35988014       0.00000000
Si      -0.00127062       2.71326240       2.71379198       0.00000000
Si      -2.71585251       2.71236645      -0.00013720       0.00000000
Si       2.71366965       2.71515204       0.00030871       0.00000000
Si      -2.71523349      -2.71379997       0.00048021       0.00000000
Si       2.71393029      -0.00172674       2.71550701       0.00000000
Si      -2.71581993      -0.00179190       2.71434079       0.00000000
