10
Lattice="16.28999089631971 0.0 0.0 0.0 16.28999089631971 0.0 0.0 0.0 34.3005442915855" Properties=species:S:1:pos:R:3:initial_magmoms:R:1 pbc="T T T"
Si      -0.25770780       2.16891576      -0.82311062       0.00000000
Si      -1.82954619      -0.32821092       1.45235446       0.00000000
Si       1.94924511      -0.10775835       1.32629989       0.00000000
Si       0.23571630      -1.63571148      -1.72209409       0.00000000
Si       3.52241928      -1.05810066      -0.31179212       0.00000000
Si       1.70090406      -2.22304743       2.43437959       0.00000000
Si       1.71786195       2.59414992      -2.03508673       0.00000000
Si      -0.03295467       3.55537395       1.10746229       0.00000000
Si      -1.88903727      -2.58035229      -1.95286828       0.00000000
Si       2.14948179      -2.86399377      -1.11830127       0.00000000
