10
Lattice="16.28999089631971 0.0 0.0 0.0 16.28999089631971 0.0 0.0 0.0 34.3005442915855" Properties=species:S:1:pos:R:3:initial_magmoms:R:1 pbc="T T T"
Si      -0.64190745       2.24885079      -0.29872361       0.00000000
Si      -0.22475313      -1.38645819      -1.93057291       0.00000000
Si      -0.73463013      -0.78231096       2.13737101       0.00000000
Si       2.38086495       0.11163537       0.31813773       0.00000000
Si       2.63674827      -1.83500334       1.75639465       0.00000000
Si       1.75081662      -0.96122403      -3.14254902       0.00000000
Si       0.03295467      -3.55537395      -1.10746229       0.00000000
Si       1.18366398      -0.87239466       3.43722516       0.00000000
Si       1.00378980       3.65005143       0.47478840       0.00000000
Si       2.95801965       2.36532429       0.82780980       0.00000000
