10
Lattice="16.28999089631971 0.0 0.0 0.0 16.28999089631971 0.0 0.0 0.0 34.3005442915855" Properties=species:S:1:pos:R:3:initial_magmoms:R:1 pbc="T T T"
Si      -1.94924511       0.10775835      -1.32629989       0.00000000
Si      -0.24834105      -2.11528908       1.10807970       0.00000000
Si       1.57317417      -0.95034231      -1.63809201       0.00000000
Si       0.65454849       1.82812896       1.53755706       0.00000000
Si       1.98355185      -2.28338559       1.80746819       0.00000000
Si       0.20023668      -2.75623542      -2.44460116       0.00000000
Si       3.12538311      -2.08810107      -0.29882651       0.00000000
Si      -3.77879130      -0.22045257       0.12605457       0.00000000
Si       0.39866517       3.77476767       0.09930013       0.00000000
Si      -1.71352881      -1.52795313      -3.04839398       0.00000000
