10
Lattice="16.28999089631971 0.0 0.0 0.0 16.28999089631971 0.0 0.0 0.0 34.3005442915855" Properties=species:S:1:pos:R:3:initial_magmoms:R:1 pbc="T T T"
Si      -1.33829192      -1.18503234      -1.54987580       0.00000000
Si       1.15400966      -1.50574986       1.42485227       0.00000000
Si      -1.55764721       1.24234056       1.40592865       0.00000000
Si       1.91717987       0.91251693      -1.30565579       0.00000000
Si       2.50943540      -0.12909825       2.79773575       0.00000000
Si       3.44409044      -1.05847533      -1.12034558       0.00000000
Si      -0.20415768       2.58520671       2.79835316       0.00000000
Si      -2.08770752       0.51688170      -3.17181225       0.00000000
Si      -2.75549978      -2.66791104      -0.12409601       0.00000000
Si       2.36132672      -3.02674716      -0.09832257       0.00000000
