10
Lattice="16.28999089631971 0.0 0.0 0.0 16.28999089631971 0.0 0.0 0.0 34.3005442915855" Properties=species:S:1:pos:R:3:initial_magmoms:R:1 pbc="T T T"
Si      -1.35337320       1.35088083       1.35607278       0.00000000
Si       1.35632169       1.35477414      -1.35710179       0.00000000
Si      -1.35822762      -1.36028016      -1.35655298       0.00000000
Si       1.35348723      -1.36389654       1.36053185       0.00000000
Si      -0.00910611       2.69812899       2.70960731       0.00000000
Si      -0.00114030       2.71233387      -2.71382628       0.00000000
Si      -2.71629234       2.71026504       0.00284695       0.00000000
Si       2.71393029      -0.00252495      -2.71351758       0.00000000
Si       2.71529865       2.71301805       0.00068601       0.00000000
Si      -2.71598283      -0.00262269      -2.71382628       0.00000000
