10
Lattice="16.28999089631971 0.0 0.0 0.0 16.28999089631971 0.0 0.0 0.0 34.3005442915855" Properties=species:S:1:pos:R:3:initial_magmoms:R:1 pbc="T T T"
Si      -1.34426709      -1.34724816      -1.35353453       0.00000000
Si       1.33097445      -1.32493086       1.39040764       0.00000000
Si      -1.38575772       1.31719311       1.35528386       0.00000000
Si       1.36177884       1.37242853      -1.34643432       0.00000000
Si       2.29571712       0.51082182       2.47849011       0.00000000
Si       0.47540736       2.13011854       2.67372892       0.00000000
Si      -0.33008427      -2.36146356       2.88724993       0.00000000
Si       0.00910611      -2.69812899      -2.70960731       0.00000000
Si      -2.70174537      -2.70806589       0.02356449       0.00000000
Si      -2.70718623       0.01213605      -2.70676036       0.00000000
