10
Lattice="16.28999089631971 0.0 0.0 0.0 16.28999089631971 0.0 0.0 0.0 34.3005442915855" Properties=species:S:1:pos:R:3:initial_magmoms:R:1 pbc="T T T"
Si      -1.33097445       1.32493086      -1.39040764       0.00000000
Si       0.96474267       1.83575268       1.08808247       0.00000000
Si       1.39075875      -1.37816658      -1.36807797       0.00000000
Si      -1.66105872      -1.03653270       1.49684229       0.00000000
Si      -0.15187167      -0.56826036       3.34399623       0.00000000
Si       1.84878468       0.66865563       2.96806206       0.00000000
Si      -0.85556709       3.45504940       1.28332128       0.00000000
Si      -2.71673217       2.64212397      -0.03512378       0.00000000
Si      -2.67524154      -0.02231730      -2.74394218       0.00000000
Si       0.03080439       2.69735939      -2.73684196       0.00000000
