10
Lattice="16.28999089631971 0.0 0.0 0.0 16.28999089631971 0.0 0.0 0.0 34.3005442915855" Properties=species:S:1:pos:R:3:initial_magmoms:R:1 pbc="T T T"
Si       1.35695700      -1.35694071      -1.35782211       0.00000000
Si      -1.35759394       1.35720135      -1.35741050       0.00000000
Si       1.35856971       1.35793440       1.35607278       0.00000000
Si      -1.35936629      -1.35775521       1.35768490       0.00000000
Si      -2.71418789      -0.00105885      -2.71410068       0.00000000
Si      -0.00057015      -2.71239903      -2.71598722       0.00000000
Si       2.71480995      -2.71492398      -0.00010290       0.00000000
Si      -0.00050499       2.71536381      -2.71437509       0.00000000
Si      -2.71519091       2.71510317       0.00020580       0.00000000
Si      -2.71514062      -2.71516833      -0.00061741       0.00000000
