10
Lattice="16.28999089631971 0.0 0.0 0.0 16.28999089631971 0.0 0.0 0.0 34.3005442915855" Properties=species:S:1:pos:R:3:initial_magmoms:R:1 pbc="T T T"
Si       1.64569725       1.40120064       0.77351201       0.00000000
Si      -1.88757117       0.78014439       1.09628031       0.00000000
Si      -0.41730093       0.50169942      -2.24404576       0.00000000
Si       0.64190745      -2.24885079       0.29872361       0.00000000
Si      -3.21618357      -0.67505760      -0.26106159       0.00000000
Si      -2.21895864      -1.03394259      -2.39472814       0.00000000
Si       2.12882607       2.55684649      -1.18484436       0.00000000
Si       1.85367168       1.00758537      -2.94614400       0.00000000
Si       3.02277240      -2.13721542       0.61686133       0.00000000
Si      -1.48846617       0.62571519       3.40851559       0.00000000
