10
Lattice="16.28999089631971 0.0 0.0 0.0 16.28999089631971 0.0 0.0 0.0 34.3005442915855" Properties=species:S:1:pos:R:3:initial_magmoms:R:1 pbc="T T T"
Si      -1.64569725      -1.40120064      -0.77351201       0.00000000
Si       0.48312882       1.15564585      -1.95835637       0.00000000
Si      -0.76623273       1.52712464       1.59514770       0.00000000
Si       1.95422985      -1.28472714       0.35302140       0.00000000
Si       2.56020156       1.94204886      -1.35483796       0.00000000
Si      -3.53326842      -0.62105625       0.32276830       0.00000000
Si       1.12513401       2.64377645       2.20501172       0.00000000
Si       0.20797443      -0.39361527      -3.71965600       0.00000000
Si      -2.06299818      -0.89950122      -3.01755777       0.00000000
Si       3.72547413       0.03477915      -0.58996969       0.00000000
