10
Lattice="16.28999089631971 0.0 0.0 0.0 16.28999089631971 0.0 0.0 0.0 34.3005442915855" Properties=species:S:1:pos:R:3:initial_magmoms:R:1 pbc="T T T"
Si       1.34749318       1.35577483       1.35596987       0.00000000
Si      -1.35785295       1.35465734      -1.35806221       0.00000000
Si       1.35913890      -1.35794273      -1.35651868       0.00000000
Si      -1.35918873      -1.35180140       1.39092215       0.00000000
Si       2.57798114      -0.12610922       2.67287141       0.00000000
Si      -0.03565881       2.71093179       2.71512970       0.00000000
Si       0.00053989       2.71257708      -2.71512970       0.00000000
Si       2.71792853       2.71114356       0.00240104       0.00000000
Si      -2.71454931      -0.00162494      -2.71509540       0.00000000
Si       2.71574567      -0.00189266      -2.71482100       0.00000000
