10
Lattice="16.28999089631971 0.0 0.0 0.0 16.28999089631971 0.0 0.0 0.0 34.3005442915855" Properties=species:S:1:pos:R:3:initial_magmoms:R:1 pbc="T T T"
Si      -1.38246714       1.22329331      -1.40457377       0.00000000
Si      -1.81452681      -1.01960089       1.06613011       0.00000000
Si       1.36651923       1.29241016       1.51622211       0.00000000
Si       1.32553359      -1.50848008      -1.37277715       0.00000000
Si      -2.62112616       2.48629122       0.16923898       0.00000000
Si       2.64906351       2.55425310      -0.04856960       0.00000000
Si      -0.03243339       2.55896091      -2.76438531       0.00000000
Si      -0.93048480      -2.18669794       2.94610970       0.00000000
Si       2.56204233      -2.78221147       0.26548636       0.00000000
Si       2.68472232      -0.15667869      -2.76369930       0.00000000
