10
Lattice="16.28999089631971 0.0 0.0 0.0 16.28999089631971 0.0 0.0 0.0 34.3005442915855" Properties=species:S:1:pos:R:3:initial_magmoms:R:1 pbc="T T T"
Si       1.28254428       1.26184295      -1.56479171       0.00000000
Si       1.63972926      -0.96288887       1.48957057       0.00000000
Si      -1.36651923      -1.29241016      -1.51622211       0.00000000
Si      -1.03003299       1.60810319       1.49742540       0.00000000
Si      -0.12794166      -0.14240718       3.38484820       0.00000000
Si       2.47992511       2.62642367      -0.09192551       0.00000000
Si       3.42006011       0.74598752       1.05608005       0.00000000
Si       0.62923383       3.39769001       1.33881959       0.00000000
Si       2.67991907      -2.69137257       0.09587007       0.00000000
Si      -0.05348007       2.62955135      -2.90920229       0.00000000
