10
Lattice="16.28999089631971 0.0 0.0 0.0 16.28999089631971 0.0 0.0 0.0 34.3005442915855" Properties=species:S:1:pos:R:3:initial_magmoms:R:1 pbc="T T T"
Si      -1.28510181       1.10004741       1.64776477       0.00000000
Si       1.27693467      -1.81218824       0.83803137       0.00000000
Si       1.98797363       1.29964878       0.23101429       0.00000000
Si      -0.92046645      -0.36361235      -2.18498019       0.00000000
Si       2.93619824      -0.39982013       1.66354303       0.00000000
Si       2.11159029      -2.64477014      -1.21900772       0.00000000
Si      -2.83385727       2.31028038       0.39191824       0.00000000
Si       1.40579183       3.24076518       1.38015177       0.00000000
Si      -1.49838678       3.23679042      -1.33583544       0.00000000
Si      -2.14448076      -0.30503351       3.28469056       0.00000000
