10
Lattice="16.28999089631971 0.0 0.0 0.0 16.28999089631971 0.0 0.0 0.0 34.3005442915855" Properties=species:S:1:pos:R:3:initial_magmoms:R:1 pbc="T T T"
Si      -1.35577433      -1.35741312      -1.35830231       0.00000000
Si       1.35936629       1.35775521      -1.35768490       0.00000000
Si      -1.35924642       1.36202319       1.35555827       0.00000000
Si       1.36161431      -1.35884664       1.35922843       0.00000000
Si      -0.02065083       2.71407690       2.70727487       0.00000000
Si      -2.71136529       2.71336014      -0.00133772       0.00000000
Si      -0.00882103      -2.71421537       2.71279726       0.00000000
Si      -2.71309203       0.00060273      -2.71519830       0.00000000
Si      -2.71416717      -2.71533286      -0.00123482       0.00000000
Si       0.00173814      -2.71448578      -2.71516400       0.00000000
