10
Lattice="16.28999089631971 0.0 0.0 0.0 16.28999089631971 0.0 0.0 0.0 34.3005442915855" Properties=species:S:1:pos:R:3:initial_magmoms:R:1 pbc="T T T"
Si      -0.85937895      -1.40508092       1.63692579       0.00000000
Si      -1.54875546       1.21023297      -1.25584653       0.00000000
Si       1.28510181      -1.10004741      -1.64776477       0.00000000
Si       1.22468220       1.45903014       1.41493254       0.00000000
Si       2.69089364       2.14071777      -0.26761300       0.00000000
Si      -1.30880376       0.25182711       3.29714166       0.00000000
Si       3.27307544       0.19960137      -1.41675047       0.00000000
Si      -2.24093385       2.87344197       0.29121178       0.00000000
Si       2.15946660      -0.00788436       2.97193802       0.00000000
Si      -0.21328497       2.13674301      -2.98360021       0.00000000
