10
Lattice="16.28999089631971 0.0 0.0 0.0 16.28999089631971 0.0 0.0 0.0 34.3005442915855" Properties=species:S:1:pos:R:3:initial_magmoms:R:1 pbc="T T T"
Si       1.30693041      -1.38471516       1.38329713       0.00000000
Si      -1.22785875      -1.48519188      -1.38952410       0.00000000
Si      -1.41349959       1.33338537       1.39502450       0.00000000
Si       1.49211513       1.03891104      -1.66903939       0.00000000
Si      -2.05926777       0.29486529      -2.68543369       0.00000000
Si       2.57417838       2.67960726      -0.19564355       0.00000000
Si      -0.07121988       1.45378476      -3.45928870       0.00000000
Si       2.81468394      -2.56842801      -0.16395669       0.00000000
Si       2.65245183      -0.03186324       2.75904128       0.00000000
Si      -2.72577312       2.71513575       0.00655484       0.00000000
