10
Lattice="16.28999089631971 0.0 0.0 0.0 16.28999089631971 0.0 0.0 0.0 34.3005442915855" Properties=species:S:1:pos:R:3:initial_magmoms:R:1 pbc="T T T"
Si      -1.35747828       1.35531171      -1.36159517       0.00000000
Si       1.36019871      -1.36210464      -1.36276139       0.00000000
Si      -1.36290285      -1.36546038       1.37047901       0.00000000
Si       1.36267479       1.36875096       1.36910699       0.00000000
Si       2.71231758      -2.71344159      -0.00586540       0.00000000
Si      -2.71712313       2.70876636      -0.00233244       0.00000000
Si       0.00091224       2.71244790      -2.71825105       0.00000000
Si       2.71964790       2.71300176      -0.00617410       0.00000000
Si      -2.71453302      -0.00281817      -2.71879986       0.00000000
Si      -2.71365336      -2.71999017      -0.00555669       0.00000000
