10
Lattice="16.28999089631971 0.0 0.0 0.0 16.28999089631971 0.0 0.0 0.0 34.3005442915855" Properties=species:S:1:pos:R:3:initial_magmoms:R:1 pbc="T T T"
Si       1.27024533       1.45394766      -1.46554101       0.00000000
Si      -1.27335672       1.34974053       1.57997999       0.00000000
Si      -1.08206325      -1.64069622      -1.47339584       0.00000000
Si       1.43835813      -1.33778367       1.56171151       0.00000000
Si      -2.57417838      -2.67960726       0.19564355       0.00000000
Si      -2.62920600       2.66409918       0.17507694       0.00000000
Si       0.90829782      -2.06324253      -3.01602938       0.00000000
Si       2.75778853       2.66348016       0.02284075       0.00000000
Si       2.36626815      -0.05822046      -3.10119768       0.00000000
Si       2.99600534      -2.58012423       0.15578287       0.00000000
