10
Lattice="16.28999089631971 0.0 0.0 0.0 16.28999089631971 0.0 0.0 0.0 34.3005442915855" Properties=species:S:1:pos:R:3:initial_magmoms:R:1 pbc="T T T"
Si       1.35773892       1.35581670       1.35686169       0.00000000
Si      -1.35896067       1.35617508      -1.35583267       0.00000000
Si      -1.35733167      -1.35918873       1.35706749       0.00000000
Si       1.35850455      -1.35778779      -1.36234978       0.00000000
Si      -2.71350675       2.71302394       0.00027440       0.00000000
Si       0.00004887       2.71358430       2.71375768       0.00000000
Si      -2.71494027      -0.00188964       2.71348327       0.00000000
Si      -2.71366965      -2.71515204      -0.00030871       0.00000000
Si       2.71531415      -0.00197109       2.71444369       0.00000000
Si       2.71544526       2.71434694      -0.00058311       0.00000000
