10
Lattice="16.28999089631971 0.0 0.0 0.0 16.28999089631971 0.0 0.0 0.0 34.3005442915855" Properties=species:S:1:pos:R:3:initial_magmoms:R:1 pbc="T T T"
Si       1.35918873       1.35180140      -1.39092215       0.00000000
Si      -1.35689184      -1.36331010      -1.38660028       0.00000000
Si       1.23650874      -1.27373139       1.63826351       0.00000000
Si      -1.32553359       1.50848008       1.37277715       0.00000000
Si       2.70668191       2.70757623      -0.03495227       0.00000000
Si       2.70699142      -2.71324611       0.00617410       0.00000000
Si      -2.71404432      -2.72504007      -0.01725318       0.00000000
Si      -2.70800073       2.73177340      -0.03179662       0.00000000
Si       0.00133578       2.70645874      -2.74898436       0.00000000
Si      -2.71137276      -0.00705357      -2.74850415       0.00000000
