10
Lattice="16.28999089631971 0.0 0.0 0.0 16.28999089631971 0.0 0.0 0.0 34.3005442915855" Properties=species:S:1:pos:R:3:initial_magmoms:R:1 pbc="T T T"
Si       1.35495333      -1.35628911      -1.36372180       0.00000000
Si       1.36953288       1.36205577       1.34640002       0.00000000
Si      -1.36177558       1.35870003      -1.36248698       0.00000000
Si      -1.38363350      -1.35790182       1.34516520       0.00000000
Si       2.61563643      -0.05426199       2.74785244       0.00000000
Si       2.70930393       2.71629234      -0.00662001       0.00000000
Si       2.71282257      -2.71311579      -0.00466488       0.00000000
Si       2.71127502       0.00131949      -2.71962308       0.00000000
Si      -2.71489876       2.71648782      -0.00686011       0.00000000
Si      -2.72222909      -2.70995553      -0.00655141       0.00000000
