10
Lattice="16.28999089631971 0.0 0.0 0.0 16.28999089631971 0.0 0.0 0.0 34.3005442915855" Properties=species:S:1:pos:R:3:initial_magmoms:R:1 pbc="T T T"
Si       1.12032846       1.64175507      -1.34207815       0.00000000
Si      -0.64915487       1.18659618       1.98233246       0.00000000
Si      -1.69281512      -1.06802127      -1.33051886       0.00000000
Si       1.72665855      -1.82456145      -0.08400208       0.00000000
Si      -1.63644909      -0.66520215       2.97471637       0.00000000
Si       2.40837876       0.29375757      -2.73941450       0.00000000
Si      -0.34478762      -2.42620002      -2.74064932       0.00000000
Si       2.73013884       2.98672263       0.06565128       0.00000000
Si       3.65448231      -1.12256019      -1.33796208       0.00000000
Si      -0.33264832       3.01467627      -2.69400055       0.00000000
