10
Lattice="16.28999089631971 0.0 0.0 0.0 16.28999089631971 0.0 0.0 0.0 34.3005442915855" Properties=species:S:1:pos:R:3:initial_magmoms:R:1 pbc="T T T"
Si       1.43256052       1.64494791       0.85106558       0.00000000
Si      -2.09069674       0.71975736      -0.86420270       0.00000000
Si       1.34057089      -0.99901683      -1.69557975       0.00000000
Si      -0.30677980      -1.25520966       2.22987963       0.00000000
Si       2.20462507      -1.90972557       1.90834615       0.00000000
Si       3.38288077       0.38999889       0.82822141       0.00000000
Si       0.71070175      -3.29334930      -1.28544792       0.00000000
Si       0.65868778       0.27218961      -3.55048562       0.00000000
Si      -2.74299721      -1.00411560      -2.43389938       0.00000000
Si      -1.67163649       2.79586899      -2.04733203       0.00000000
