10
Lattice="16.28999089631971 0.0 0.0 0.0 16.28999089631971 0.0 0.0 0.0 34.3005442915855" Properties=species:S:1:pos:R:3:initial_magmoms:R:1 pbc="T T T"
Si      -1.23048796       1.48188405      -1.31690153       0.00000000
Si       1.49503104      -1.23680196      -1.31079603       0.00000000
Si       1.31035131       1.36997990       1.41428083       0.00000000
Si      -1.21626516      -1.11617451       1.70292007       0.00000000
Si      -0.47612412       2.32118558       2.66313005       0.00000000
Si       0.57155094      -2.34071010       2.75344343       0.00000000
Si       2.07526455      -0.39216546       3.01457362       0.00000000
Si      -2.70066113      -2.49942357       0.35631425       0.00000000
Si      -2.57798114       0.12610922      -2.67287141       0.00000000
Si       0.13887225      -2.59408476      -2.67177379       0.00000000
