10
Lattice="16.28999089631971 0.0 0.0 0.0 16.28999089631971 0.0 0.0 0.0 34.3005442915855" Properties=species:S:1:pos:R:3:initial_magmoms:R:1 pbc="T T T"
Si       0.13368389      -2.34178524       0.31391876       0.00000000
Si      -0.83465562       0.83258190       2.05703909       0.00000000
Si       2.07458851       0.84468537      -0.80794977       0.00000000
Si      -1.26438582       1.46067610      -2.86125010       0.00000000
Si      -2.11159029       2.64477014       1.21900772       0.00000000
Si       0.82460795       2.24495001       2.88255075       0.00000000
Si       3.67125287       0.47708523       0.82232171       0.00000000
Si       1.03189820      -3.32133552      -1.66542956       0.00000000
Si       1.56362009      -1.49234319      -3.20442724       0.00000000
Si      -3.03205674       2.28115779      -0.96597247       0.00000000
