10
Lattice="10.86 0.0 0.0 0.0 10.86 0.0 0.0 0.0 10.86" Properties=species:S:1:pos:R:3:initial_magmoms:R:1 pbc="T T T"
Si       1.17621402       1.24984482       1.32667932       0.00000000
Si      -1.24298130      -1.22842890       1.29832386       0.00000000
Si       1.47201870      -1.22842890      -1.41667614       0.00000000
Si      -1.24298130       1.48657110      -1.41667614       0.00000000
Si      -2.60048130      -2.58592890      -0.05917614       0.00000000
Si       0.11451870      -2.58592890       2.65582386       0.00000000
Si      -2.60048130       0.12907110       2.65582386       0.00000000
Si      -0.02532552       2.78611128       2.54041464       0.00000000
Si       2.79582012       0.19389444       2.55193710       0.00000000
Si       0.11451870      -2.58592890      -2.77417614       0.00000000
