10
Lattice="10.86 0.0 0.0 0.0 10.86 0.0 0.0 0.0 10.86" Properties=species:S:1:pos:R:3:initial_magmoms:R:1 pbc="T T T"
Si      -1.32772188      -1.23934320       1.28206644       0.00000000
Si       1.38727812      -1.23934320      -1.43293356       0.00000000
Si       1.38727812       1.47565680       1.28206644       0.00000000
Si       0.02977812      -2.59684320       2.63956644       0.00000000
Si      -2.71892046       0.18298014       2.53567968       0.00000000
Si      -2.68522188      -2.59684320      -0.07543356       0.00000000
Si       2.74477812      -2.59684320      -0.07543356       0.00000000
Si       2.74477812       0.11815680       2.63956644       0.00000000
Si       0.02977812      -2.59684320      -2.79043356       0.00000000
Si      -0.01551894       2.73250632      -2.68333224       0.00000000
