10
Lattice="10.86 0.0 0.0 0.0 10.86 0.0 0.0 0.0 10.86" Properties=species:S:1:pos:R:3:initial_magmoms:R:1 pbc="T T T"
Si       1.19203704       1.24694520       1.09377576       0.00000000
Si      -1.35044100       1.18038426      -1.41890244       0.00000000
Si      -1.35044100      -1.53461574       1.29609756       0.00000000
Si       1.36455900      -1.53461574      -1.41890244       0.00000000
Si      -0.01816878       2.48658162       2.48945952       0.00000000
Si       2.68290870       2.50911612      -0.14103882       0.00000000
Si      -2.70794100       2.53788426      -0.06140244       0.00000000
Si       0.00705900       2.53788426      -2.77640244       0.00000000
Si      -2.70794100      -0.17711574       2.65359756       0.00000000
Si      -2.70794100      -0.17711574      -2.77640244       0.00000000
