10
Lattice="16.290000149 0.0 0.0 0.0 16.290000149 0.0 0.0 0.0 29.1751946751" Properties=species:S:1:pos:R:3:initial_magmoms:R:1 pbc="T T T"
Si      -0.42841071       0.24027750      -2.28744905       0.00000000
Si       0.81046009       1.85852612       1.18254941       0.00000000
Si      -1.87778090      -0.79793308       1.19653892       0.00000000
Si       1.63631422      -1.73169218       0.08637025       0.00000000
Si       2.18597141       0.59541580       2.60070311       0.00000000
Si      -0.67352635      -2.19426302       2.63900722       0.00000000
Si      -2.15288642       1.85877047      -2.18378958       0.00000000
Si      -0.48438315      -2.05229567      -2.95028029       0.00000000
Si       1.71950726      -2.42703083      -2.14317771       0.00000000
Si       0.64529578      -3.51622260       1.24028421       0.00000000
