10
Lattice="16.290000149 0.0 0.0 0.0 16.290000149 0.0 0.0 0.0 29.1751946751" Properties=species:S:1:pos:R:3:initial_magmoms:R:1 pbc="T T T"
Si      -1.08071119      -1.17068086       1.70222673       0.00000000
Si       0.87614137      -1.78074137      -1.28312506       0.00000000
Si       1.87180247       1.46352619       0.15923821       0.00000000
Si      -1.59852142       1.30230406      -1.21214181       0.00000000
H        0.47644992       2.30542598       1.79293241       0.00000000
H       -1.23333220      -0.37538676       2.97823305       0.00000000
H        2.58895343       1.54583956       1.48487153       0.00000000
Si       1.99648613      -0.33835959      -2.83282388       0.00000000
Si      -3.28759896      -1.08475111       0.88543798       0.00000000
Si      -0.28421163       2.66012444      -2.59659233       0.00000000
