10
Lattice="16.290000149 0.0 0.0 0.0 16.290000149 0.0 0.0 0.0 29.1751946751" Properties=species:S:1:pos:R:3:initial_magmoms:R:1 pbc="T T T"
Si      -1.41255478      -1.28409673       1.38162052       0.00000000
Si       1.32367654      -1.39420573      -1.36440715       0.00000000
Si       1.39989745       1.37096641       1.31340891       0.00000000
Si      -1.34744365       1.33309216      -1.40755727       0.00000000
Si       0.00752598       2.72416043       2.62646773       0.00000000
Si      -2.64231947      -2.71700912      -0.04501733       0.00000000
Si       2.58491351      -2.78645340       0.06573171       0.00000000
Si       2.69027723      -0.03455109      -2.74089284       0.00000000
Si      -2.71733492       2.72041373      -0.09686165       0.00000000
Si       2.73984770       2.71969697      -0.05905059       0.00000000
