10
Lattice="16.290000149 0.0 0.0 0.0 16.290000149 0.0 0.0 0.0 29.1751946751" Properties=species:S:1:pos:R:3:initial_magmoms:R:1 pbc="T T T"
Si       1.36418977      -1.34154667       1.36070190       0.00000000
Si      -1.35495334       1.35303112       1.36399870       0.00000000
Si       1.35470899       1.37657017      -1.34153380       0.00000000
Si      -1.35086455      -1.40198257      -1.32545827       0.00000000
Si       2.70817994      -2.67289580      -0.02579087       0.00000000
Si      -2.77127112      -0.08518041      -2.62474639       0.00000000
Si       0.01231524      -2.73292445       2.68770646       0.00000000
Si      -2.72251514       2.70011639       0.01937233       0.00000000
Si       0.01094688       2.71441901      -2.71664825       0.00000000
Si      -2.72850986       0.00923643       2.70629106       0.00000000
