10
Lattice="16.290000149 0.0 0.0 0.0 16.290000149 0.0 0.0 0.0 29.1751946751" Properties=species:S:1:pos:R:3:initial_magmoms:R:1 pbc="T T T"
H       -0.89818174       0.76476664       0.96281060       0.00000000
Si       1.17841861       1.62095275      -1.16788304       0.00000000
Si       1.28813176      -1.04951584       1.61986953       0.00000000
Si      -1.56535498      -1.16833510      -1.32067354       0.00000000
H        1.69577598      -2.47681307       0.95516670       0.00000000
Si      -0.59114782       2.78153382      -2.18901486       0.00000000
Si      -1.95181895       2.43538760       1.78865037       0.00000000
Si       2.62934775       0.40969350      -2.51338467       0.00000000
Si      -2.20506329       2.95915998      -0.51024498       0.00000000
Si      -0.09738162      -2.34377264       2.98511256       0.00000000
