10
Lattice="16.290000149 0.0 0.0 0.0 16.290000149 0.0 0.0 0.0 29.1751946751" Properties=species:S:1:pos:R:3:initial_magmoms:R:1 pbc="T T T"
Si       1.37104786      -1.34552143      -1.33873298       0.00000000
Si       1.37829691       1.33421617       1.34608513       0.00000000
Si      -1.34923555      -1.36518346       1.35682160       0.00000000
Si      -1.34622190       1.35829279      -1.36992127       0.00000000
Si       0.00006516       2.70068654       2.65780188       0.00000000
Si      -0.01467729      -2.69592986      -2.66343270       0.00000000
Si      -2.72039744      -0.00868257       2.68966120       0.00000000
Si       2.74225863       0.01236411      -2.67676576       0.00000000
Si       2.73479781       2.68988627      -0.01029884       0.00000000
Si      -2.69342120       0.00140094      -2.73219863       0.00000000
