10
Lattice="16.290000149 0.0 0.0 0.0 16.290000149 0.0 0.0 0.0 29.1751946751" Properties=species:S:1:pos:R:3:initial_magmoms:R:1 pbc="T T T"
H       -0.59297230      -0.09280413      -1.40399789       0.00000000
Si       0.48661488      -2.03276396       1.04984021       0.00000000
Si      -1.72524134       0.43751682       1.51959001       0.00000000
Si       1.90705403       1.49283190       0.31643416       0.00000000
H        1.51953121      -0.85239055      -1.71205877       0.00000000
Si       0.80238025      -0.93470392      -3.03769209       0.00000000
Si      -2.56779272       2.28915227       0.39932089       0.00000000
Si      -0.33583464       1.46258137       3.14838278       0.00000000
Si       2.07806645      -1.22207581       2.61441837       0.00000000
Si       0.93037078       2.94751263       1.82423740       0.00000000
