10
Lattice="16.290000149 0.0 0.0 0.0 16.290000149 0.0 0.0 0.0 29.1751946751" Properties=species:S:1:pos:R:3:initial_magmoms:R:1 pbc="T T T"
Si       1.39722589       1.43536078      -1.17223015       0.00000000
Si       1.70323355      -1.59615937       0.01432502       0.00000000
Si      -0.96050728       1.26998470       1.75278735       0.00000000
Si      -1.59145156      -0.81068815      -1.56457816       0.00000000
Si      -2.07806645       1.22207581      -2.61441837       0.00000000
Si      -0.17101242       2.71490771      -2.29798421       0.00000000
Si       0.62991802      -3.35495811      -1.04975268       0.00000000
Si      -2.41390109       2.68465718       0.53396441       0.00000000
Si      -0.29756943      -2.31306599      -2.88463902       0.00000000
Si       2.36027441      -2.01567575       2.14562259       0.00000000
