10
Lattice="16.290000149 0.0 0.0 0.0 16.290000149 0.0 0.0 0.0 29.1751946751" Properties=species:S:1:pos:R:3:initial_magmoms:R:1 pbc="T T T"
Si      -0.83147419       1.24602863      -1.71311783       0.00000000
Si      -1.83381419      -1.02055222       0.94183655       0.00000000
Si       1.04532931       1.84961386       0.95212664       0.00000000
Si       1.74679301      -1.54461781      -0.45542683       0.00000000
H       -1.01268415       2.63308304      -1.10218926       0.00000000
Si      -0.43043067      -2.38244510       2.19826631       0.00000000
Si       1.49354866      -1.02084544      -2.75432218       0.00000000
Si       2.46360188       0.50189621       2.20170023       0.00000000
Si       1.06218946       1.26640579      -3.05354298       0.00000000
Si       0.99926119      -0.92761777       3.42078282       0.00000000
