10
Lattice="16.290000149 0.0 0.0 0.0 16.290000149 0.0 0.0 0.0 29.1751946751" Properties=species:S:1:pos:R:3:initial_magmoms:R:1 pbc="T T T"
Si       1.35742942       1.35099487       1.35139502       0.00000000
Si       1.42581484      -1.35641944      -1.27606466       0.00000000
Si      -1.32447475      -1.38691432       1.38077444       0.00000000
Si      -1.36684504       1.33325506      -1.39711255       0.00000000
Si       0.03784167      -2.69873174      -2.55436415       0.00000000
Si      -2.70161507       2.62190810       0.05172762       0.00000000
Si       2.69876432       2.70229925      -0.03477683       0.00000000
Si       2.70299972      -0.03008763       2.70506570       0.00000000
Si       0.01343925       2.68234400       2.73788779       0.00000000
Si      -2.70927137      -0.07125246       2.73870470       0.00000000
