10
Lattice="16.290000149 0.0 0.0 0.0 16.290000149 0.0 0.0 0.0 29.1751946751" Properties=species:S:1:pos:R:3:initial_magmoms:R:1 pbc="T T T"
Si      -2.23221872       0.50438727      -0.32740403       0.00000000
Si       0.88904305      -1.42226362       1.59127347       0.00000000
Si       0.56001763      -1.03558789      -2.00961658       0.00000000
Si       1.24341571       1.78656341      -0.84260880       0.00000000
H       -0.02226843      -1.49454235       2.80560342       0.00000000
Si       0.60442417       1.11001853      -2.98914457       0.00000000
Si       2.77583232      -0.08065179       1.97997459       0.00000000
Si       3.30014226       1.17609891       0.04983123       0.00000000
Si       1.16336665       1.45123050       3.05691855       0.00000000
Si      -1.06067449      -2.72363915      -2.07940365       0.00000000
