10
Lattice="16.290000149 0.0 0.0 0.0 16.290000149 0.0 0.0 0.0 29.1751946751" Properties=species:S:1:pos:R:3:initial_magmoms:R:1 pbc="T T T"
H        1.28474344       0.05061303       0.81390041       0.00000000
Si      -1.35988758      -1.38006112       1.33838288       0.00000000
Si      -0.78452804       2.25039836       0.19734102       0.00000000
Si       0.60227389      -1.50635423      -1.76022702       0.00000000
Si       0.52577604       2.01635993      -1.71060001       0.00000000
Si       0.47723184      -2.55309914       2.27581106       0.00000000
Si       2.73266381       1.93043018      -0.89381126       0.00000000
H       -3.06331824       1.00333369      -1.50088871       0.00000000
Si       2.66983328      -2.22967911      -0.91082040       0.00000000
Si       3.59227083      -0.14778288      -0.09893309       0.00000000
