10
Lattice="16.290000149 0.0 0.0 0.0 16.290000149 0.0 0.0 0.0 29.1751946751" Properties=species:S:1:pos:R:3:initial_magmoms:R:1 pbc="T T T"
Si      -1.37104786       1.34552143       1.33873298       0.00000000
Si      -1.38572515      -1.35040843      -1.32469971       0.00000000
Si       1.36288657      -1.36554184       1.33593216       0.00000000
Si       1.37121076       1.35788554      -1.33803278       0.00000000
Si       0.00724905       2.67973760       2.68481811       0.00000000
Si      -0.05408280      -2.76812389      -2.61135497       0.00000000
Si      -0.00112401      -2.71352958       2.68627687       0.00000000
Si       2.69956253       0.00185706      -2.70620353       0.00000000
Si      -2.72028341      -0.01966203       2.69555459       0.00000000
Si      -2.71726976       2.70381422      -0.03118828       0.00000000
