10
Lattice="16.290000149 0.0 0.0 0.0 16.290000149 0.0 0.0 0.0 29.1751946751" Properties=species:S:1:pos:R:3:initial_magmoms:R:1 pbc="T T T"
Si       1.35798328      -1.35084012       1.35737593       0.00000000
Si      -1.36319608       1.36131459       1.34620183       0.00000000
Si       1.34970796       1.38653151      -1.33765350       0.00000000
Si      -1.34684092      -1.38817680      -1.33884968       0.00000000
Si      -2.78016546      -0.04126746      -2.60108531       0.00000000
Si      -0.00337203       2.70356173       2.71098826       0.00000000
Si      -0.00068418      -2.71688695       2.69818035       0.00000000
Si       2.79194313       0.05309888      -2.62013671       0.00000000
Si       2.71021619      -2.71014289       0.00008753       0.00000000
Si      -2.72720666       0.01332685       2.69654654       0.00000000
