10
Lattice="16.290000149 0.0 0.0 0.0 16.290000149 0.0 0.0 0.0 29.1751946751" Properties=species:S:1:pos:R:3:initial_magmoms:R:1 pbc="T T T"
Si       1.18602604      -0.51199470       0.79861260       0.00000000
H       -0.80723467       0.74828116      -1.65114097       0.00000000
H        0.63288280       1.65894104      -1.10296823       0.00000000
H       -0.57099709       0.11878668       2.32783043       0.00000000
Si      -1.88400368       0.58161817       1.72641297       0.00000000
Si      -1.65087749      -0.18601551      -2.46174458       0.00000000
Si       2.51962319      -1.58071645      -0.82271131       0.00000000
Si      -1.61451820       2.61242732       0.53136782       0.00000000
Si       0.49588389      -2.37314351       2.21827758       0.00000000
Si      -2.85435012      -1.41501457       0.84996095       0.00000000
