10
Lattice="16.290000149 0.0 0.0 0.0 16.290000149 0.0 0.0 0.0 29.1751946751" Properties=species:S:1:pos:R:3:initial_magmoms:R:1 pbc="T T T"
Si       1.41990157       1.31025358       1.31340891       0.00000000
Si       1.37841094      -1.34713414      -1.32175302       0.00000000
Si      -1.34965909      -1.35816247       1.35215357       0.00000000
Si      -1.36241416       1.39502674      -1.30316842       0.00000000
Si       0.05735709       2.67981905       2.57526526       0.00000000
Si       0.00757485      -2.70935282      -2.64794067       0.00000000
Si       2.73028547       0.04424364      -2.64875757       0.00000000
Si      -2.72104904       0.04150692      -2.65879384       0.00000000
Si       0.01114236       2.73882143      -2.64546078       0.00000000
Si       2.73452088      -2.67711491       0.06549831       0.00000000
