10
Lattice="16.290000149 0.0 0.0 0.0 16.290000149 0.0 0.0 0.0 29.1751946751" Properties=species:S:1:pos:R:3:initial_magmoms:R:1 pbc="T T T"
H       -0.61346512       1.30501309      -0.44235430       0.00000000
Si      -0.84779677      -1.66172174      -1.39451596       0.00000000
Si       2.30760884       0.08767767      -0.35622913       0.00000000
Si      -0.75585601      -0.58762592       2.15228329       0.00000000
H        1.40121694       1.65443359      -1.85087435       0.00000000
Si       2.36278307      -1.98063107       0.93173902       0.00000000
Si      -2.22721932      -0.21074210      -2.55215850       0.00000000
Si      -2.12801973       2.77435481       0.18365785       0.00000000
Si       1.31170339      -1.31095079       3.00168990       0.00000000
Si       0.49559067       2.55318548      -2.66042765       0.00000000
