10
Lattice="16.290000149 0.0 0.0 0.0 16.290000149 0.0 0.0 0.0 29.1751946751" Properties=species:S:1:pos:R:3:initial_magmoms:R:1 pbc="T T T"
Si      -0.64381339       0.84149254      -1.07991983       0.00000000
Si       2.14646816       0.25125696       1.31089985       0.00000000
Si       2.25399845      -1.48053295      -0.49513223       0.00000000
Si       0.38949390       1.22220613       2.57316464       0.00000000
Si      -2.07518312       2.06778746       0.20600605       0.00000000
Si       0.41932089      -2.66645148      -1.50013016       0.00000000
Si      -2.08393085      -0.48853710      -2.28969845       0.00000000
Si      -0.68849686      -2.31214724       2.13889187       0.00000000
Si      -1.37637469      -0.26213868       2.90444898       0.00000000
Si       0.85708207       2.20276640      -2.24188031       0.00000000
