10
Lattice="16.290000149 0.0 0.0 0.0 16.290000149 0.0 0.0 0.0 29.1751946751" Properties=species:S:1:pos:R:3:initial_magmoms:R:1 pbc="T T T"
Si       1.41490054       1.32665761      -1.23860371       0.00000000
Si      -1.42617322      -1.38937411      -1.17952395       0.00000000
Si       1.29492469      -1.29393100       1.42655032       0.00000000
Si      -1.08253567       1.42003189       1.49826295       0.00000000
H        2.13856751      -0.35963433       2.23715393       0.00000000
Si      -0.53652744      -2.11949192       2.59014461       0.00000000
Si       1.04464513       2.38990592       2.17827838       0.00000000
Si      -2.13807881      -0.34267644       2.67977081       0.00000000
Si       2.64539828       2.46382994       0.38692143       0.00000000
Si       0.00788436      -2.71132391      -2.46171540       0.00000000
