10
Lattice="16.290000149 0.0 0.0 0.0 16.290000149 0.0 0.0 0.0 29.1751946751" Properties=species:S:1:pos:R:3:initial_magmoms:R:1 pbc="T T T"
Si       1.36756180      -1.34708527       1.34462637       0.00000000
Si       1.37948608       1.34429968      -1.33540701       0.00000000
Si      -1.35101116       1.37583712       1.34894430       0.00000000
Si      -1.38267892      -1.34338744      -1.35536284       0.00000000
Si      -0.05383845       2.69120902      -2.59764263       0.00000000
Si      -0.00599472      -2.69087996       2.68691873       0.00000000
Si      -2.72782568       0.02050911       2.68163802       0.00000000
Si       2.72251514      -2.70011639      -0.01937233       0.00000000
Si       2.72564282       0.01558953       2.70162303       0.00000000
Si      -0.04875597      -2.78529681      -2.64411872       0.00000000
