10
Lattice="16.290000149 0.0 0.0 0.0 16.290000149 0.0 0.0 0.0 29.1751946751" Properties=species:S:1:pos:R:3:initial_magmoms:R:1 pbc="T T T"
Si       1.30420999      -1.42487002      -1.30295923       0.00000000
Si       1.41260365       1.29748222       1.34449421       0.00000000
Si      -1.29445228      -1.49082823       1.26850450       0.00000000
Si      -1.27808083       1.49921758      -1.33050062       0.00000000
Si       2.57041541       0.06006123      -2.62710462       0.00000000
Si      -2.66134619      -0.13147659       2.64188302       0.00000000
Si       0.03227049       2.65531889       2.66923477       0.00000000
Si      -2.65463471       0.18726984      -2.68498821       0.00000000
Si      -0.08519670      -2.44993457      -2.93175200       0.00000000
Si      -2.71865441       2.69638598       0.02088273       0.00000000
