10
Lattice="16.290000149 0.0 0.0 0.0 16.290000149 0.0 0.0 0.0 29.1751946751" Properties=species:S:1:pos:R:3:initial_magmoms:R:1 pbc="T T T"
Si       0.92748745      -1.04189212       1.83488634       0.00000000
Si      -0.76980025      -2.04683852      -0.87928202       0.00000000
Si      -1.29388213       1.50237784       1.32006086       0.00000000
Si       1.99249508       0.59869009      -1.16916675       0.00000000
H       -0.26096580       2.68275125      -1.44183812       0.00000000
Si      -0.15462468      -1.53137404      -3.06109060       0.00000000
Si       2.26105202      -2.58628187       0.67645606       0.00000000
Si      -1.00932841      -2.07471071       2.73669161       0.00000000
Si       2.00080298       0.71690662       2.89896404       0.00000000
Si       0.29756943       2.31306599       2.88463902       0.00000000
