10
Lattice="16.290000149 0.0 0.0 0.0 16.290000149 0.0 0.0 0.0 29.1751946751" Properties=species:S:1:pos:R:3:initial_magmoms:R:1 pbc="T T T"
Si       1.35866746       1.36604683      -1.34080442       0.00000000
Si      -1.35280306       1.38451969       1.33669072       0.00000000
Si       1.38792430      -1.34368066       1.34541410       0.00000000
Si      -1.35808102      -1.36267480      -1.35699665       0.00000000
Si      -2.70730028       0.02899620       2.67060979       0.00000000
Si       0.05067819      -2.79124266       2.60187304       0.00000000
Si       2.71090037       0.00674406      -2.69809283       0.00000000
Si       2.69276960       2.71902420       0.04075775       0.00000000
Si       0.00068418       2.71688695      -2.69818035       0.00000000
Si      -2.72564282      -0.01558953      -2.70162303       0.00000000
