10
Lattice="16.290000149 0.0 0.0 0.0 16.290000149 0.0 0.0 0.0 29.1751946751" Properties=species:S:1:pos:R:3:initial_magmoms:R:1 pbc="T T T"
Si       1.43868473      -1.34982199       1.28653856       0.00000000
Si      -1.25807671      -1.36759438      -1.45522954       0.00000000
Si       1.37865529       1.32688567      -1.38949782       0.00000000
Si      -1.43000137       1.28156689       1.41225447       0.00000000
Si       0.08926920      -2.76014505       2.59174924       0.00000000
Si      -2.69123834       2.67381456      -0.01788439       0.00000000
Si      -0.03008763       2.69836359       2.66982206       0.00000000
Si      -2.59532282      -2.81515638      -0.19877060       0.00000000
Si      -2.72736956      -0.30841857       2.68861089       0.00000000
Si       2.74941808       2.69858513      -0.05940070       0.00000000
