10
Lattice="16.290000149 0.0 0.0 0.0 16.290000149 0.0 0.0 0.0 29.1751946751" Properties=species:S:1:pos:R:3:initial_magmoms:R:1 pbc="T T T"
Si      -0.97668325       1.45468072       1.50780324       0.00000000
Si       1.56823831      -1.27954693       1.12575406       0.00000000
Si       1.61771104       1.02793159      -1.39708337       0.00000000
Si      -1.90705403      -1.49283190      -0.31643416       0.00000000
H       -0.38752281      -2.34522245      -2.02849294       0.00000000
H        0.76611871      -0.71671114      -3.15325504       0.00000000
H       -2.50002632      -1.58563603      -1.72043205       0.00000000
Si       0.17101242      -2.71490771       2.29798421       0.00000000
Si      -2.66786219       2.38172834       0.19629071       0.00000000
H       -2.13280085       2.64060902      -1.18938516       0.00000000
