10
Lattice="16.290000149 0.0 0.0 0.0 16.290000149 0.0 0.0 0.0 29.1751946751" Properties=species:S:1:pos:R:3:initial_magmoms:R:1 pbc="T T T"
Si      -1.36018243      -1.36436896       1.33934566       0.00000000
Si       1.36379881      -1.38215764      -1.32020673       0.00000000
Si       1.35863488       1.35351982       1.35562542       0.00000000
Si      -1.37800369       1.33840270      -1.35413749       0.00000000
Si       2.72104904      -0.04150692       2.65879384       0.00000000
Si      -0.01804932       2.70101234      -2.68665615       0.00000000
Si       0.00079821      -2.70806591      -2.69494191       0.00000000
Si      -2.73311994       0.00149868       2.67060980       0.00000000
Si       2.73628019      -0.05769918      -2.67612391       0.00000000
Si      -0.00610875      -2.74005948       2.67895390       0.00000000
