10
Lattice="16.290000149 0.0 0.0 0.0 16.290000149 0.0 0.0 0.0 29.1751946751" Properties=species:S:1:pos:R:3:initial_magmoms:R:1 pbc="T T T"
Si      -1.40430227       1.31849632       1.31335056       0.00000000
Si       1.37073184      -1.23885451       1.44396791       0.00000000
Si       1.33122859       1.39779604      -1.34167968       0.00000000
Si      -1.39141688      -1.37544616      -1.31180428       0.00000000
Si       2.56915457      -2.64147239      -0.03069230       0.00000000
Si      -0.11613956       2.72821664       2.63221524       0.00000000
Si       2.62955789       0.03951954      -2.75871888       0.00000000
Si       0.00309021      -2.66716172       2.74238077       0.00000000
Si      -2.73136713      -0.00980658      -2.68729801       0.00000000
Si      -2.72670819       2.69270444      -0.02109367       0.00000000
