10
Lattice="16.290000149 0.0 0.0 0.0 16.290000149 0.0 0.0 0.0 29.1751946751" Properties=species:S:1:pos:R:3:initial_magmoms:R:1 pbc="T T T"
H        1.20749626      -1.97600960       0.20028771       0.00000000
H       -1.98495281      -0.61947613      -1.08143694       0.00000000
Si       1.88400368       0.67813642       1.28370857       0.00000000
Si      -0.76737304      -1.87064588       1.28166630       0.00000000
Si       0.62587810      -0.33138747      -2.33127311       0.00000000
Si      -1.78499306       1.54647487       0.63044678       0.00000000
H       -2.63658539      -0.19816785      -1.12572489       0.00000000
H        2.84123667       0.44632971      -1.20866997       0.00000000
H        2.35067960       1.96180472       0.63604842       0.00000000
H       -0.44100288       2.16054272      -2.22172025       0.00000000
