10
Lattice="16.290000149 0.0 0.0 0.0 16.290000149 0.0 0.0 0.0 29.1751946751" Properties=species:S:1:pos:R:3:initial_magmoms:R:1 pbc="T T T"
Si      -1.30885264      -1.28940238       1.47129923       0.00000000
Si      -1.35211888       1.36342414      -1.37224945       0.00000000
Si       1.34278471       1.40289481       1.34584590       0.00000000
Si       1.44388045      -1.36099693      -1.28884340       0.00000000
Si      -2.62107731      -2.65046447       0.12757146       0.00000000
Si       2.74747143      -2.62909199       0.18859429       0.00000000
Si       2.66750381       0.08392608      -2.72050521       0.00000000
Si      -2.71456562       2.71150310       0.01887927       0.00000000
Si       2.70962975       0.06963975       2.74295844       0.00000000
Si      -2.74115091      -0.01514970      -2.71557461       0.00000000
