10
Lattice="16.290000149 0.0 0.0 0.0 16.290000149 0.0 0.0 0.0 29.1751946751" Properties=species:S:1:pos:R:3:initial_magmoms:R:1 pbc="T T T"
Si       1.30359097      -1.26809506       1.47743769       0.00000000
Si      -0.86424967      -1.93981322      -1.03389596       0.00000000
Si      -1.44388045       1.36099693       1.28884340       0.00000000
Si       1.22362336       1.44492301      -1.43166181       0.00000000
Si       2.55837710      -2.67441077       0.11651989       0.00000000
Si       2.52791480       2.77278609       0.01259201       0.00000000
Si      -0.10109574       2.76389175       2.63468930       0.00000000
Si       2.76006360       0.16786845      -2.63630560       0.00000000
Si      -1.52129053      -1.52029684      -3.16519353       0.00000000
Si      -0.10770948      -2.67416642       2.73586887       0.00000000
