10
Lattice="16.290000149 0.0 0.0 0.0 16.290000149 0.0 0.0 0.0 29.1751946751" Properties=species:S:1:pos:R:3:initial_magmoms:R:1 pbc="T T T"
Si       1.38479662      -1.31566186      -1.35793026       0.00000000
Si       1.37083609       1.36221868       1.32618765       0.00000000
Si      -1.36482508       1.36870210      -1.33105991       0.00000000
Si      -1.35650089      -1.35567010       1.35638398       0.00000000
Si       0.00746082      -2.67752216      -2.66646692       0.00000000
Si      -0.00757485       2.70935282       2.64794067       0.00000000
Si       0.00765630       2.69316056      -2.68697708       0.00000000
Si       2.71487513      -2.68193675       0.01636728       0.00000000
Si      -2.73473265       0.01080027       2.66810073       0.00000000
Si      -2.73479781      -2.68988627       0.01029884       0.00000000
