10
Lattice="16.290000149 0.0 0.0 0.0 16.290000149 0.0 0.0 0.0 29.1751946751" Properties=species:S:1:pos:R:3:initial_magmoms:R:1 pbc="T T T"
Si       2.30122316       0.06514371      -0.44967728       0.00000000
Si      -0.85960702       2.07821306      -0.79487818       0.00000000
Si      -0.14219541       0.41200668       2.35919377       0.00000000
Si      -0.92243755      -2.08189623      -0.81188732       0.00000000
H       -2.30752739       0.19839591       0.91283349       0.00000000
H       -1.01222803       2.87350716       0.48112814       0.00000000
Si      -3.59227083       0.14778288       0.09893309       0.00000000
Si      -2.98999695      -1.35857135      -1.66129394       0.00000000
Si       3.07102341       2.11198223       0.42960474       0.00000000
Si       2.06169500       0.03727152       3.16629635       0.00000000
