10
Lattice="16.290000149 0.0 0.0 0.0 16.290000149 0.0 0.0 0.0 29.1751946751" Properties=species:S:1:pos:R:3:initial_magmoms:R:1 pbc="T T T"
Si      -1.37301895       1.35915616       1.32108199       0.00000000
Si      -1.37420812      -1.36433638      -1.33114743       0.00000000
Si       1.35402481       1.37468053      -1.34261328       0.00000000
Si       1.35966115      -1.32507748       1.39154009       0.00000000
Si      -0.01347183       2.66727575       2.71087156       0.00000000
Si       2.68367978      -2.69570180       0.01855542       0.00000000
Si      -0.01396053      -2.71625978      -2.68376781       0.00000000
Si      -2.71437014       0.02611287       2.69368737       0.00000000
Si       2.70084944       0.02658528      -2.70917940       0.00000000
Si      -2.73015516       2.69363297      -0.05595802       0.00000000
