10
Lattice="16.290000149 0.0 0.0 0.0 16.290000149 0.0 0.0 0.0 29.1751946751" Properties=species:S:1:pos:R:3:initial_magmoms:R:1 pbc="T T T"
Si       1.34910523       1.39749144      -1.30912600       0.00000000
Si      -1.32374170       1.35148357       1.38462556       0.00000000
Si      -1.33584517      -1.32618520      -1.40552376       0.00000000
Si       1.38432421      -1.35563752       1.34083360       0.00000000
Si       2.66738978      -0.09088191      -2.51877041       0.00000000
Si       0.02436984      -2.71824716       2.67335226       0.00000000
Si       2.71316468       2.67895894       0.09855381       0.00000000
Si      -0.03111390       2.72200038      -2.67616767       0.00000000
Si      -2.71050941      -0.00873144       2.68875677       0.00000000
Si      -2.69381216       2.71246584       0.07077902       0.00000000
