10
Lattice="16.290000149 0.0 0.0 0.0 16.290000149 0.0 0.0 0.0 29.1751946751" Properties=species:S:1:pos:R:3:initial_magmoms:R:1 pbc="T T T"
Si      -0.62797951       0.40343814      -2.14811123       0.00000000
Si       1.48706524      -1.79993099       0.11743016       0.00000000
Si       0.97034644       1.99663274       0.87645202       0.00000000
Si      -2.12462327      -0.58539745       1.00222629       0.00000000
H        0.08777052      -0.82490932       2.57386485       0.00000000
H        0.73940311      -1.24621759       2.61815280       0.00000000
H        2.28335303       1.53380125       1.47786949       0.00000000
H        2.85435012       1.41501457      -0.84996095       0.00000000
Si      -2.34914834       1.54924417       1.91482638       0.00000000
Si      -0.17242965      -3.32426775       0.85153641       0.00000000
