10
Lattice="16.290000149 0.0 0.0 0.0 16.290000149 0.0 0.0 0.0 29.1751946751" Properties=species:S:1:pos:R:3:initial_magmoms:R:1 pbc="T T T"
Si      -1.39237147       1.35319402       1.31305881       0.00000000
Si       1.33995025       1.34873056      -1.37245951       0.00000000
Si      -1.39989745      -1.37096641      -1.31340891       0.00000000
Si       1.35249355      -1.31075857       1.42582094       0.00000000
Si       2.58492980      -2.74062311       0.00989039       0.00000000
Si       2.68384268       2.67569768       0.03451426       0.00000000
Si      -2.89326693      -0.00807984       2.47501929       0.00000000
Si      -0.05375700       2.64111401       2.74346026       0.00000000
Si       2.66396888      -0.02189376      -2.74544417       0.00000000
Si      -2.73408104       2.69992091      -0.07031222       0.00000000
