10
Lattice="16.290000149 0.0 0.0 0.0 16.290000149 0.0 0.0 0.0 29.1751946751" Properties=species:S:1:pos:R:3:initial_magmoms:R:1 pbc="T T T"
Si      -1.35995437      -1.36260964       1.33251867       0.00000000
Si       1.33392295      -1.44190936      -1.28875587       0.00000000
Si      -1.38432421       1.35563752      -1.34083360       0.00000000
Si       1.38267892       1.34338744       1.35536284       0.00000000
Si       2.68644908      -0.09713727      -2.60317425       0.00000000
Si       0.01804932      -2.70101234       2.68665615       0.00000000
Si      -2.71251308       0.00221544       2.68516822       0.00000000
Si      -0.03521898       2.75312896      -2.64995959       0.00000000
Si      -2.69182478      -2.71585253      -0.06045100       0.00000000
Si      -2.70806591       2.70712109       0.04379197       0.00000000
