10
Lattice="16.290000149 0.0 0.0 0.0 16.290000149 0.0 0.0 0.0 29.1751946751" Properties=species:S:1:pos:R:3:initial_magmoms:R:1 pbc="T T T"
Si       1.34387614       1.33149411      -1.34822367       0.00000000
Si      -1.35526285       1.39531833       1.28989371       0.00000000
Si       1.37007046      -1.36098227       1.31384654       0.00000000
Si      -1.30228777      -1.33040594      -1.42158178       0.00000000
Si      -2.67861685       0.01356143       2.65418416       0.00000000
Si      -0.01669725      -2.72119728       2.61797774       0.00000000
Si       0.03762990       2.73763064       2.61934898       0.00000000
Si       2.72715780       0.00991247       2.65176262       0.00000000
Si      -2.57994832       0.04002453      -2.81183524       0.00000000
Si      -2.65002302       2.74774673      -0.14199567       0.00000000
