10
Lattice="16.290000149 0.0 0.0 0.0 16.290000149 0.0 0.0 0.0 29.1751946751" Properties=species:S:1:pos:R:3:initial_magmoms:R:1 pbc="T T T"
Si      -1.31656938      -1.38153211      -1.36119788       0.00000000
Si       1.34510115      -1.36382488       1.35332058       0.00000000
Si      -1.38143762       1.34741759       1.33905391       0.00000000
Si       1.32335400       1.38175691      -1.36429045       0.00000000
Si      -2.63229787       0.04729802      -2.64546078       0.00000000
Si       2.67861685      -0.01356143      -2.65418416       0.00000000
Si      -0.01085729       2.71502826       2.66439548       0.00000000
Si       2.66191960      -2.73475871      -0.03620642       0.00000000
Si       2.70204187      -0.00119731       2.70337354       0.00000000
Si      -0.03054538      -2.71190384       2.70401539       0.00000000
