10
Lattice="16.290000149 0.0 0.0 0.0 16.290000149 0.0 0.0 0.0 29.1751946751" Properties=species:S:1:pos:R:3:initial_magmoms:R:1 pbc="T T T"
Si       0.61346512      -1.30501309       0.44235430       0.00000000
Si      -1.51455462       1.46934172       0.62601215       0.00000000
H        2.01468206       0.34942050      -1.40852005       0.00000000
Si       1.10905579       1.24817239      -2.21807335       0.00000000
Si      -0.03456738       2.67643073      -0.75662950       0.00000000
Si      -2.83246711      -0.23118768      -0.50540190       0.00000000
Si      -1.61375420      -1.51575519      -2.10980420       0.00000000
Si      -0.21888873       1.63007515       2.64426459       0.00000000
Si      -0.23433165      -2.96673483      -0.95216165       0.00000000
Si       2.92107396      -1.21733542       0.08612517       0.00000000
