10
Lattice="16.28999089631971 0.0 0.0 0.0 16.28999089631971 0.0 0.0 0.0 34.40246978574605" Properties=species:S:1:pos:R:3:initial_magmoms:R:1 pbc="T T T"
Si       1.35684297       1.35716877       1.35707498       0.00000000
Si      -1.35659862       1.35545832      -1.36072165       0.00000000
Si      -1.35817875      -1.35851432       1.35690297       0.00000000
Si       1.35529542      -1.36191242      -1.35814146       0.00000000
Si      -2.69579952      -0.03261258      -2.71239888       0.00000000
Si      -0.00298107       2.72504007      -2.69645677       0.00000000
Si       2.71366965       2.71498914      -0.00092887       0.00000000
Si       2.71497285      -0.00141723       2.71390915       0.00000000
Si      -2.71329498       2.71599912      -0.00037843       0.00000000
Si      -0.00071676       2.71448415       2.71497563       0.00000000
