10
Lattice="16.28999089631971 0.0 0.0 0.0 16.28999089631971 0.0 0.0 0.0 34.40246978574605" Properties=species:S:1:pos:R:3:initial_magmoms:R:1 pbc="T T T"
Si      -0.13703148      -0.58249782      -2.26532757       0.00000000
Si      -1.88810874      -0.81055782       1.15084445       0.00000000
Si       0.81174699       1.94409747       1.10278761       0.00000000
Si       1.92109599      -1.55188314      -0.11141418       0.00000000
Si       2.10100275       0.59971635       2.51925849       0.00000000
Si      -0.59181570      -2.15793630       2.50331638       0.00000000
Si       2.25469890      -0.83430864      -2.57488116       0.00000000
Si      -1.91562255       0.88032789      -2.90999581       0.00000000
Si      -1.33960815      -2.61047250      -2.11395662       0.00000000
Si      -3.04546437      -2.06910693      -0.43948427       0.00000000
