10
Lattice="16.28999089631971 0.0 0.0 0.0 16.28999089631971 0.0 0.0 0.0 34.40246978574605" Properties=species:S:1:pos:R:3:initial_magmoms:R:1 pbc="T T T"
Si       1.28925576      -1.34438112       1.41647088       0.00000000
Si      -0.81174699      -1.94409747      -1.10278761       0.00000000
Si       1.67404185       0.93864609      -1.41405380       0.00000000
Si      -1.41812595       1.36247931       1.37413174       0.00000000
Si       0.49583502       1.15320168      -3.50108080       0.00000000
Si       2.78055639      -2.48070636       0.04855567       0.00000000
Si       2.64756483       0.00366525       2.75547424       0.00000000
Si      -2.69985573      -2.75465529       0.04805684       0.00000000
Si       1.10934900      -3.49598061      -1.21420179       0.00000000
Si      -0.06436179      -2.71396287       2.75220600       0.00000000
