10
Lattice="16.28999089631971 0.0 0.0 0.0 16.28999089631971 0.0 0.0 0.0 34.40246978574605" Properties=species:S:1:pos:R:3:initial_magmoms:R:1 pbc="T T T"
Si       1.35749457       1.35723393      -1.35728140       0.00000000
Si      -1.35790182      -1.35720135      -1.35707498       0.00000000
Si       1.35799956      -1.35637056       1.35810706       0.00000000
Si      -1.36135530       1.35866745       1.35762542       0.00000000
Si       2.70695817       0.00451233       2.70451727       0.00000000
Si       0.00008145      -2.71469592      -2.71425318       0.00000000
Si       2.71513575       0.00014661      -2.71397796       0.00000000
Si      -0.00027693       2.71521720      -2.71404676       0.00000000
Si       2.71454931      -2.71482624       0.00147931       0.00000000
Si      -2.71519277      -2.71423980       0.00055044       0.00000000
