10
Lattice="16.28999089631971 0.0 0.0 0.0 16.28999089631971 0.0 0.0 0.0 34.40246978574605" Properties=species:S:1:pos:R:3:initial_magmoms:R:1 pbc="T T T"
Si      -0.82109908      -0.11314219       2.19491320       0.00000000
Si      -1.84961288       0.47321798      -1.40981400       0.00000000
Si       0.68293544      -2.29845125      -0.16110686       0.00000000
Si       1.88544695       1.46956325      -0.54118555       0.00000000
Si       0.01546084      -2.39027798      -2.40869027       0.00000000
Si       1.06061909      -1.15684805       3.21185078       0.00000000
Si       3.08193116      -0.84969943       1.96974891       0.00000000
Si      -1.41540293      -0.75143001      -3.41052515       0.00000000
Si      -1.78486013       2.86784798      -1.74207324       0.00000000
Si       3.04285145      -2.38508147       0.16265497       0.00000000
