10
Lattice="16.28999089631971 0.0 0.0 0.0 16.28999089631971 0.0 0.0 0.0 34.40246978574605" Properties=species:S:1:pos:R:3:initial_magmoms:R:1 pbc="T T T"
Si      -1.35220032       1.35143469       1.36027442       0.00000000
Si       1.35834165       1.35648459      -1.35624932       0.00000000
Si      -1.35682668      -1.35834165      -1.35676536       0.00000000
Si       1.35839052      -1.35997065       1.36106567       0.00000000
Si      -0.00736308      -2.71106325       2.70503331       0.00000000
Si       2.71336014       2.71461447       0.00258019       0.00000000
Si      -2.71459818      -0.00035838      -2.71353072       0.00000000
Si       0.00006516       2.71469592      -2.71366833       0.00000000
Si       2.71507059      -0.00032580      -2.71359953       0.00000000
Si      -2.71404432       2.71464705       0.00306182       0.00000000
