10
Lattice="16.28999089631971 0.0 0.0 0.0 16.28999089631971 0.0 0.0 0.0 34.40246978574605" Properties=species:S:1:pos:R:3:initial_magmoms:R:1 pbc="T T T"
Si      -0.52730730       2.28498201      -0.02274005       0.00000000
Si      -1.98726597      -1.01310768       0.76218714       0.00000000
Si       1.72362861      -0.50389857       1.56954476       0.00000000
Si       0.24641883      -0.35197803      -2.48434134       0.00000000
Si       2.95357248       1.55188314       1.34819914       0.00000000
Si      -1.93865661      -1.43140230      -2.67623843       0.00000000
Si      -1.38629529      -3.32100972       0.70480379       0.00000000
Si      -3.49811460      -0.72044154      -1.09155657       0.00000000
Si      -2.69224830       0.12667104       2.70080180       0.00000000
Si      -2.87015139       2.58237225      -0.36955154       0.00000000
