10
Lattice="16.28999089631971 0.0 0.0 0.0 16.28999089631971 0.0 0.0 0.0 34.40246978574605" Properties=species:S:1:pos:R:3:initial_magmoms:R:1 pbc="T T T"
Si       0.82109908       0.11314219      -2.19491320       0.00000000
Si      -1.09375525       1.94564665       0.80783925       0.00000000
Si      -1.82897182      -1.42525024       0.52195456       0.00000000
Si       1.88171817      -1.04370586       1.01693758       0.00000000
Si       1.50403452      -2.18530906      -2.35602006       0.00000000
Si      -3.51826111      -0.25123415      -0.65117031       0.00000000
Si      -1.54692676       1.18793359       3.05222323       0.00000000
Si       1.94876781       0.04585146       3.08167176       0.00000000
Si      -2.16509968      -1.11458365       2.88268776       0.00000000
Si      -1.02851380       0.58636018      -3.60472720       0.00000000
