10
Lattice="16.28999089631971 0.0 0.0 0.0 16.28999089631971 0.0 0.0 0.0 34.40246978574605" Properties=species:S:1:pos:R:3:initial_magmoms:R:1 pbc="T T T"
Si      -1.72362861       0.50389857      -1.56954476       0.00000000
Si       1.22994387       2.05578171      -0.22134561       0.00000000
Si      -0.82090197       0.26902935       2.24720498       0.00000000
Si       0.81104652      -2.29464198       0.04671858       0.00000000
Si       1.37147139       0.48884661       3.30841856       0.00000000
Si      -1.18853469      -3.59603379       0.40041057       0.00000000
Si      -3.71089458      -0.50920911      -0.80735761       0.00000000
Si      -2.67768504       1.94342958       2.08840310       0.00000000
Si      -2.25093591       2.78888058      -1.59228480       0.00000000
Si       0.11178198       3.96594711       0.80133718       0.00000000
