10
Lattice="16.28999089631971 0.0 0.0 0.0 16.28999089631971 0.0 0.0 0.0 34.40246978574605" Properties=species:S:1:pos:R:3:initial_magmoms:R:1 pbc="T T T"
Si      -1.57270176       1.60798590      -0.59499105       0.00000000
Si       2.36525913      -0.01286910       0.29971448       0.00000000
Si      -0.39038985       0.00353493       2.35485037       0.00000000
Si      -0.81116055      -1.54836450      -1.67467876       0.00000000
Si      -1.81345167      -2.75056650       0.09594854       0.00000000
Si       1.30823361      -1.92521736      -2.59707830       0.00000000
Si       2.80624572      -2.04527466      -0.80845849       0.00000000
Si      -3.43115130      -1.10460861       0.90451024       0.00000000
Si      -3.65197365       0.41725206      -0.93206663       0.00000000
Si      -0.72120717       2.98812357      -2.28394684       0.00000000
