10
Lattice="16.28999089631971 0.0 0.0 0.0 16.28999089631971 0.0 0.0 0.0 34.40246978574605" Properties=species:S:1:pos:R:3:initial_magmoms:R:1 pbc="T T T"
Si      -1.90247652       1.29997458       0.68574481       0.00000000
Si       2.30772285       0.70084467       0.18133552       0.00000000
Si      -0.61737471      -0.48741309      -2.29519646       0.00000000
Si      -0.39019437      -1.88129952       1.50073978       0.00000000
Si      -3.37302369      -0.47100906      -0.24006057       0.00000000
Si       2.78381439       0.51292323      -2.12793156       0.00000000
Si       0.85136427       0.89267571      -3.42886168       0.00000000
Si       0.67518792      -3.63351708       0.13582103       0.00000000
Si      -2.94984207      -1.92173130       1.61419919       0.00000000
Si      -2.98263384      -0.47454399      -2.59491094       0.00000000
