10
Lattice="16.28999089631971 0.0 0.0 0.0 16.28999089631971 0.0 0.0 0.0 34.40246978574605" Properties=species:S:1:pos:R:3:initial_magmoms:R:1 pbc="T T T"
Si      -1.35176049      -1.34886087      -1.37761327       0.00000000
Si       1.24540308      -1.49843565       1.33058507       0.00000000
Si       1.37147139       1.35707103      -1.37592755       0.00000000
Si      -1.28516697       1.36337165       1.57783576       0.00000000
Si       2.20820724      -0.16311177       3.00237402       0.00000000
Si      -2.69418355       2.71276460       0.01692602       0.00000000
Si      -2.71830741      -2.70770751      -0.00061924       0.00000000
Si      -2.70164437      -0.00316026      -2.73719964       0.00000000
Si       2.72603376       2.72098779       0.02944853       0.00000000
Si       0.01078398       2.71138320      -2.73658039       0.00000000
