10
Lattice="16.28999089631971 0.0 0.0 0.0 16.28999089631971 0.0 0.0 0.0 34.40246978574605" Properties=species:S:1:pos:R:3:initial_magmoms:R:1 pbc="T T T"
Si       1.34058555       1.36202319      -1.36292341       0.00000000
Si      -1.49605731       1.21858974       1.34923122       0.00000000
Si      -1.36664955      -1.36365219      -1.35886391       0.00000000
Si       1.58921982      -1.17431352       1.34751109       0.00000000
Si       0.13364316      -2.64007143       2.44378081       0.00000000
Si       2.68102449       2.72021823      -0.00763735       0.00000000
Si       2.69891091      -0.00047241      -2.71655814       0.00000000
Si       2.71777473      -2.70441693      -0.00460993       0.00000000
Si      -0.01306458       2.71363707      -2.71800305       0.00000000
Si      -0.01444923      -2.71508688      -2.71913833       0.00000000
