10
Lattice="16.28999089631971 0.0 0.0 0.0 16.28999089631971 0.0 0.0 0.0 34.40246978574605" Properties=species:S:1:pos:R:3:initial_magmoms:R:1 pbc="T T T"
Si       1.43920521      -1.17112068      -1.49348085       0.00000000
Si      -1.25724591       1.54667427      -1.43774882       0.00000000
Si       1.54497618       0.38929909       1.89310017       0.00000000
Si      -1.77507243      -1.33742529       1.53517667       0.00000000
Si       1.50405570       2.66739695       1.57986550       0.00000000
Si       2.73872367      -2.48722236      -0.09663659       0.00000000
Si       0.09876627      -2.52931572      -2.84876691       0.00000000
Si      -2.73787659      -2.67274917      -0.13661228       0.00000000
Si      -2.61180828       0.18275751      -2.84312490       0.00000000
Si       2.81693196       0.18141056      -2.84773483       0.00000000
