10
Lattice="16.28999089631971 0.0 0.0 0.0 16.28999089631971 0.0 0.0 0.0 34.40246978574605" Properties=species:S:1:pos:R:3:initial_magmoms:R:1 pbc="T T T"
Si       1.57007907       1.02132436      -1.42116682       0.00000000
Si      -1.59218460       0.77284321      -1.56011847       0.00000000
Si       0.39946338      -2.35469085      -0.00667408       0.00000000
Si      -0.28551483       1.92176714       1.40141979       0.00000000
Si       0.56135340       3.04929578      -0.52567003       0.00000000
Si      -3.35284853       1.37491835      -0.08762314       0.00000000
Si       1.79546751      -0.59242236      -3.14621083       0.00000000
Si       1.91961360       0.02885936       3.20865135       0.00000000
Si       1.62559539      -2.72949117      -2.05362218       0.00000000
Si       3.56663034       1.36355445      -0.38768165       0.00000000
