10
Lattice="16.28999089631971 0.0 0.0 0.0 16.28999089631971 0.0 0.0 0.0 34.40246978574605" Properties=species:S:1:pos:R:3:initial_magmoms:R:1 pbc="T T T"
Si       0.86159439       0.57878370       2.10825333       0.00000000
Si      -2.33438958      -0.23988654      -0.23627629       0.00000000
Si       0.70713261       2.00236680      -1.12747277       0.00000000
Si       1.11816189      -1.91016540      -1.02268279       0.00000000
Si       2.47305006       0.96433542      -2.28164188       0.00000000
Si      -2.36271789      -1.17706653      -2.39362198       0.00000000
Si       1.45033128      -0.99694800      -3.13702536       0.00000000
Si      -2.78946702      -2.02251753       1.28706592       0.00000000
Si      -0.65257740       0.02340873      -3.64140025       0.00000000
Si       3.22820559       0.74103210       1.69132957       0.00000000
