10
Lattice="16.28999089631971 0.0 0.0 0.0 16.28999089631971 0.0 0.0 0.0 34.40246978574605" Properties=species:S:1:pos:R:3:initial_magmoms:R:1 pbc="T T T"
Si      -1.57224564       0.63524484      -1.62451993       0.00000000
Si       2.16507132       1.02394053      -0.14999485       0.00000000
Si      -0.07058457      -2.36983662       0.79111964       0.00000000
Si      -0.05209542       3.01879505       1.59080549       0.00000000
Si      -2.29293153      -0.96863598       2.33871561       0.00000000
Si      -0.34611363       0.26044452      -3.67146803       0.00000000
Si       1.76860530       3.34113506       0.10165936       0.00000000
Si      -3.36307050      -0.92273076      -1.47941023       0.00000000
Si       3.26295216       0.74202579       1.94360302       0.00000000
Si      -1.97170902       2.98993569      -1.61784585       0.00000000
