10
Lattice="16.28999089631971 0.0 0.0 0.0 16.28999089631971 0.0 0.0 0.0 34.40246978574605" Properties=species:S:1:pos:R:3:initial_magmoms:R:1 pbc="T T T"
Si      -1.32401862      -1.35111164      -1.36078013       0.00000000
Si       1.36099692      -1.35272382       1.35786624       0.00000000
Si      -1.35529542       1.36191242       1.35814146       0.00000000
Si       1.36946772       1.36631072      -1.38810259       0.00000000
Si      -2.54775600       0.03969547      -2.80014587       0.00000000
Si       2.71560816      -2.70689694       0.00006880       0.00000000
Si      -2.71640637      -2.70942189      -0.00405949       0.00000000
Si       0.00190593      -2.71116492       2.71483802       0.00000000
Si      -2.71347417       0.00339809       2.71504443       0.00000000
Si      -2.71189404       2.71737074      -0.00258019       0.00000000
