10
Lattice="16.28999089631971 0.0 0.0 0.0 16.28999089631971 0.0 0.0 0.0 34.40246978574605" Properties=species:S:1:pos:R:3:initial_magmoms:R:1 pbc="T T T"
Si       1.35461124      -1.35417312      -1.35779744       0.00000000
Si       1.35617508       1.35583032       1.35755662       0.00000000
Si      -1.36099692       1.35272382      -1.35786624       0.00000000
Si      -1.35909099      -1.35844110       1.35697178       0.00000000
Si      -2.68501554       0.00161218      -2.71864637       0.00000000
Si      -0.02296890      -2.70681327      -2.70282467       0.00000000
Si       2.70736542       0.00366354      -2.71491026       0.00000000
Si       2.71176372      -0.00089811       2.71428758       0.00000000
Si      -0.00131949       2.71321901       2.71418437       0.00000000
Si       2.71391400       2.71387061       0.00010321       0.00000000
