10
Lattice="16.28999089631971 0.0 0.0 0.0 16.28999089631971 0.0 0.0 0.0 34.40246978574605" Properties=species:S:1:pos:R:3:initial_magmoms:R:1 pbc="T T T"
Si      -0.04092048       2.27809786      -0.31323466       0.00000000
Si      -1.54497618      -0.38929909      -1.89310017       0.00000000
Si      -0.74490912      -0.02980581       2.37408136       0.00000000
Si       2.25342828      -1.21617949      -0.65092949       0.00000000
Si       1.36332639       2.62966864      -2.12538577       0.00000000
Si       1.19374749      -2.87652145      -1.98973676       0.00000000
Si      -0.10577097      -1.56041977      -3.38658102       0.00000000
Si       1.57929921      -1.21539757       3.17686345       0.00000000
Si      -3.32004861      -1.72672438      -0.35792350       0.00000000
Si       2.94205545      -2.24222143       1.40386237       0.00000000
