10
Lattice="16.28999089631971 0.0 0.0 0.0 16.28999089631971 0.0 0.0 0.0 34.40246978574605" Properties=species:S:1:pos:R:3:initial_magmoms:R:1 pbc="T T T"
Si      -0.25448238       2.25274573       0.82215068       0.00000000
Si       0.74490912       0.02980581      -2.37408136       0.00000000
Si      -1.65687219      -1.08405619       1.73877060       0.00000000
Si       2.32420833      -1.18559176       0.80278208       0.00000000
Si       1.22473107       2.04688900       2.70971205       0.00000000
Si       0.70398864       2.30790367      -2.68731603       0.00000000
Si       3.08785095       0.62178930       2.09889585       0.00000000
Si       1.41716484      -2.44770838       2.53928212       0.00000000
Si      -1.51177716      -3.43309048      -1.28782277       0.00000000
Si      -0.34875261      -1.40967700       3.69345122       0.00000000
