10
Lattice="16.28999089631971 0.0 0.0 0.0 16.28999089631971 0.0 0.0 0.0 34.40246978574605" Properties=species:S:1:pos:R:3:initial_magmoms:R:1 pbc="T T T"
Si      -1.74198744      -1.59275475      -0.24749151       0.00000000
Si       1.83912471      -0.90002413       1.24998004       0.00000000
Si       0.81073701       1.51700625      -1.71351917       0.00000000
Si      -1.12177827       1.87338258       1.08037576       0.00000000
Si      -1.91567142      -0.58039967      -2.35467836       0.00000000
Si       2.02707873       2.78379810      -0.09756546       0.00000000
Si      -1.29582063       1.62815292      -2.89861611       0.00000000
Si       2.98703214      -2.32136477      -0.31505799       0.00000000
Si      -1.45538118       1.15580808       3.54384275       0.00000000
Si      -0.49691016      -1.92472051      -3.65378515       0.00000000
