10
Lattice="16.28999089631971 0.0 0.0 0.0 16.28999089631971 0.0 0.0 0.0 34.40246978574605" Properties=species:S:1:pos:R:3:initial_magmoms:R:1 pbc="T T T"
Si      -0.14294475       0.38139777       2.42238246       0.00000000
Si       2.09890134       0.49125753      -1.18145028       0.00000000
Si      -0.61830324      -2.12511195      -1.14498364       0.00000000
Si      -1.59474213       1.96167438      -0.27112602       0.00000000
Si      -1.75019760      -0.82440432      -2.72901184       0.00000000
Si       0.98938944       1.89732888      -2.71951676       0.00000000
Si      -3.13152444       0.52290900      -1.38961974       0.00000000
Si       2.14759215       1.09590975       2.67087164       0.00000000
Si       3.42976176       0.87987177       0.72506686       0.00000000
Si      -0.13916547       3.42743229      -1.36739573       0.00000000
