10
Lattice="16.28999089631971 0.0 0.0 0.0 16.28999089631971 0.0 0.0 0.0 34.40246978574605" Properties=species:S:1:pos:R:3:initial_magmoms:R:1 pbc="T T T"
Si      -0.30942855      -1.27247706      -1.90878770       0.00000000
Si       2.20560084      -0.42051006       0.70067549       0.00000000
Si      -1.50622227      -0.69828714       1.69143277       0.00000000
Si      -0.24239520       2.31034554      -0.53402984       0.00000000
Si      -0.28988055       0.56850471       3.30738649       0.00000000
Si       1.92601557      -0.14724531       3.03206337       0.00000000
Si      -0.71496810      -3.41228911      -0.94149292       0.00000000
Si       1.41512859       2.51054964      -2.18180585       0.00000000
Si      -3.61277991      -0.58714047       0.50633583       0.00000000
Si      -2.18777958      -0.47276838      -3.12993845       0.00000000
