10
Lattice="16.28999089631971 0.0 0.0 0.0 16.28999089631971 0.0 0.0 0.0 34.40246978574605" Properties=species:S:1:pos:R:3:initial_magmoms:R:1 pbc="T T T"
Si      -0.64786959      -1.18809486       1.96369407       0.00000000
Si       1.55281167      -1.56151053      -0.94249059       0.00000000
Si       0.86061699       2.26106829       0.32317698       0.00000000
Si      -2.12203314       0.39351753      -1.34186908       0.00000000
Si      -0.99225648      -3.28318434       0.92614941       0.00000000
Si      -0.88769097       1.62676827      -3.07042214       0.00000000
Si       0.28991313      -3.49922232      -1.01965537       0.00000000
Si       0.17198982       3.28711023      -1.73161488       0.00000000
Si       3.07097451      -2.14936776       0.81330924       0.00000000
Si      -2.43190152       0.06449211       2.97729461       0.00000000
