10
Lattice="16.28999089631971 0.0 0.0 0.0 16.28999089631971 0.0 0.0 0.0 34.40246978574605" Properties=species:S:1:pos:R:3:initial_magmoms:R:1 pbc="T T T"
Si      -0.34438689      -2.09508948      -1.03754467       0.00000000
Si       0.64786959       1.18809486      -1.96369407       0.00000000
Si      -1.78403193       1.25258697       1.01360053       0.00000000
Si       1.31807277      -0.74209095       1.89640280       0.00000000
Si       0.18775854       0.34875261       3.60913072       0.00000000
Si       2.20068126      -0.37341567      -2.90618466       0.00000000
Si       0.57036177      -3.69367605       0.47788497       0.00000000
Si       3.51217287      -0.07907166       1.40692419       0.00000000
Si      -2.11620132       0.33936957       3.12794311       0.00000000
Si      -0.76131315       3.21387039       1.86898402       0.00000000
