10
Lattice="16.28999089631971 0.0 0.0 0.0 16.28999089631971 0.0 0.0 0.0 34.40246978574605" Properties=species:S:1:pos:R:3:initial_magmoms:R:1 pbc="T T T"
Si       1.46432439      -1.18516266      -1.31071075       0.00000000
Si      -1.33579629      -1.36484136       1.34217183       0.00000000
Si       1.37758014       1.35264015       1.34502723       0.00000000
Si      -1.28041029       1.37042883      -1.44130260       0.00000000
Si       2.39472774       0.43728876      -2.78535077       0.00000000
Si      -2.66204664       2.70842545      -0.01582170       0.00000000
Si       0.48068532       2.37159594      -2.93080450       0.00000000
Si      -2.69249265      -0.00878031       2.70210222       0.00000000
Si       0.21807423      -2.52451017      -2.86182751       0.00000000
Si       0.02296890       2.70681327       2.70282467       0.00000000
