10
Lattice="16.28999089631971 0.0 0.0 0.0 16.28999089631971 0.0 0.0 0.0 34.40246978574605" Properties=species:S:1:pos:R:3:initial_magmoms:R:1 pbc="T T T"
Si       1.35637056       1.35715248       1.35769423       0.00000000
Si       1.35669636      -1.35606105      -1.35993039       0.00000000
Si      -1.35922131      -1.35816246       1.35796945       0.00000000
Si      -1.36194174       1.35889551      -1.36120328       0.00000000
Si       2.69249265       0.00878031      -2.70210222       0.00000000
Si       2.71396287       0.00022806       2.71470041       0.00000000
Si      -0.00156384       2.71410212       2.71507884       0.00000000
Si       2.71402803      -2.71542897       0.00113528       0.00000000
Si      -2.71596654       0.00000000       2.71504443       0.00000000
Si       2.71546155       2.71559358       0.00072245       0.00000000
