10
Lattice="16.28999089631971 0.0 0.0 0.0 16.28999089631971 0.0 0.0 0.0 34.40246978574605" Properties=species:S:1:pos:R:3:initial_magmoms:R:1 pbc="T T T"
Si      -1.43627301       1.80667503       0.30738624       0.00000000
Si      -0.55961037      -1.90431729      -1.34950644       0.00000000
Si       0.45027189      -1.36505313       2.01897887       0.00000000
Si       1.59039270       1.32304122      -1.56431558       0.00000000
Si       2.32674957      -2.39770881       1.02663908       0.00000000
Si       2.62692540       1.59674580       2.09545561       0.00000000
Si      -2.53415385       2.08858977      -1.78621163       0.00000000
Si       1.40072823      -3.39495003      -0.92938324       0.00000000
Si       1.69652205      -0.02570562       3.57009563       0.00000000
Si      -2.86809885       1.67915691       2.18762232       0.00000000
