10
Lattice="16.28999089631971 0.0 0.0 0.0 16.28999089631971 0.0 0.0 0.0 34.40246978574605" Properties=species:S:1:pos:R:3:initial_magmoms:R:1 pbc="T T T"
Si      -1.35464382       1.35234693      -1.35962077       0.00000000
Si       1.35698958       1.35698958       1.35728140       0.00000000
Si      -1.35773892      -1.35804028       1.35745341       0.00000000
Si       1.35449721      -1.35988594      -1.36127209       0.00000000
Si      -0.00654858      -2.71020707      -2.71501347       0.00000000
Si      -2.71391400      -2.71387061      -0.00010321       0.00000000
Si       2.71332213      -2.71494924       0.00024082       0.00000000
Si       2.71475924      -0.00006516       2.71418437       0.00000000
Si      -0.00215028      -2.71476872       2.71418437       0.00000000
Si      -0.00073305       2.71484253       2.71421877       0.00000000
