10
Lattice="16.28999089631971 0.0 0.0 0.0 16.28999089631971 0.0 0.0 0.0 34.40246978574605" Properties=species:S:1:pos:R:3:initial_magmoms:R:1 pbc="T T T"
Si       1.35734796      -1.35623698      -1.35649014       0.00000000
Si      -1.35576783       1.35718506      -1.35776303       0.00000000
Si       1.34509788       1.38627900       1.34596298       0.00000000
Si      -1.34563545      -1.37738466       1.36543479       0.00000000
Si      -2.62226646       0.12318498       2.61448596       0.00000000
Si      -2.71363707      -2.71437218      -0.00096327       0.00000000
Si      -2.71340901      -0.00053757      -2.71494123       0.00000000
Si       2.71414206       2.71448415      -0.00068805       0.00000000
Si      -0.00032580      -2.71465469      -2.71483802       0.00000000
Si       0.00109143       2.71495656      -2.71480362       0.00000000
