10
Lattice="16.28999089631971 0.0 0.0 0.0 16.28999089631971 0.0 0.0 0.0 34.40246978574605" Properties=species:S:1:pos:R:3:initial_magmoms:R:1 pbc="T T T"
Si      -0.16288371      -2.27678325      -0.53616279       0.00000000
Si      -1.90382859       0.13422960       1.41005482       0.00000000
Si      -0.39363156       1.61631009      -1.77368913       0.00000000
Si       2.26162215      -0.07990245       0.92284677       0.00000000
Si       3.03659562       1.97429913      -0.01286653       0.00000000
Si       1.83275532       2.40375240      -2.04484954       0.00000000
Si       1.80845064      -0.83761551       3.16723075       0.00000000
Si      -2.17647432      -3.10361057       0.28581588       0.00000000
Si       1.52640558      -3.45079934       0.63696208       0.00000000
Si      -2.30936814      -2.00558245       2.37734960       0.00000000
