10
Lattice="16.28999089631971 0.0 0.0 0.0 16.28999089631971 0.0 0.0 0.0 34.40246978574605" Properties=species:S:1:pos:R:3:initial_magmoms:R:1 pbc="T T T"
Si       1.09375525      -1.94564665      -0.80783925       0.00000000
Si       0.77497347       2.05420158      -0.93571330       0.00000000
Si      -0.45317151      -0.75771306       2.24438398       0.00000000
Si      -2.26162215       0.07990245      -0.92284677       0.00000000
Si      -0.73521657      -3.37089689      -0.28588468       0.00000000
Si      -2.42450586      -2.19688080      -1.45900956       0.00000000
Si      -1.65042135       1.06609905       3.09667124       0.00000000
Si      -0.13911660       3.64360059       0.50447810       0.00000000
Si      -0.00488700       2.69307909       2.61166495       0.00000000
Si      -1.07134443      -3.06023030       2.07484851       0.00000000
