10
Lattice="16.28999089631971 0.0 0.0 0.0 16.28999089631971 0.0 0.0 0.0 34.40246978574605" Properties=species:S:1:pos:R:3:initial_magmoms:R:1 pbc="T T T"
Si      -1.19724984       1.82381211       0.85228726       0.00000000
Si       1.73503065      -0.54000698       1.50194387       0.00000000
Si      -0.61817292      -2.30251724      -0.16953547       0.00000000
Si       0.45317151       0.75771306      -2.24438398       0.00000000
Si       0.44828451       3.45079215       0.36728097       0.00000000
Si       1.54692676      -1.18793359      -3.05222323       0.00000000
Si      -0.28204506      -2.61318383      -2.53026866       0.00000000
Si       3.49569458      -1.14208213       0.02944853       0.00000000
Si      -2.76154596      -2.31639632       0.76483614       0.00000000
Si      -1.80845064       0.83761551      -3.16723075       0.00000000
