10
Lattice="16.28999089631971 0.0 0.0 0.0 16.28999089631971 0.0 0.0 0.0 34.40246978574605" Properties=species:S:1:pos:R:3:initial_magmoms:R:1 pbc="T T T"
Si      -1.33630128      -1.36438524       1.37734149       0.00000000
Si       1.37717289       1.35505107       1.37641262       0.00000000
Si       1.47186666      -1.29723786      -1.36832116       0.00000000
Si      -1.43264034       1.33165863      -1.42812644       0.00000000
Si       0.15040557       2.72618037      -2.61421074       0.00000000
Si      -2.68710066      -2.71156824      -0.00910978       0.00000000
Si      -2.69819415      -0.00097740       2.73620540       0.00000000
Si      -2.70459612       2.73191445       0.00164444       0.00000000
Si       0.01956429       2.71588509       2.73668704       0.00000000
Si       0.01834254      -2.71673217       2.73696226       0.00000000
