10
Lattice="16.28999089631971 0.0 0.0 0.0 16.28999089631971 0.0 0.0 0.0 34.40246978574605" Properties=species:S:1:pos:R:3:initial_magmoms:R:1 pbc="T T T"
Si       1.36138788      -1.35335691       1.35728140       0.00000000
Si      -1.35518139       1.35912357       1.35786624       0.00000000
Si      -1.36277253      -1.33732755      -1.37776120       0.00000000
Si       1.36805049       1.36689390      -1.35905657       0.00000000
Si      -2.71471221      -2.71212210       0.00027522       0.00000000
Si       0.00192222      -2.71363707       2.71428758       0.00000000
Si      -2.71342530       0.00136836       2.71476921       0.00000000
Si      -2.71251306       2.71849149      -0.00319943       0.00000000
Si       2.71443528       2.71669959       0.00196094       0.00000000
Si       0.00177561       2.71678104       2.71480362       0.00000000
