10
Lattice="16.28999089631971 0.0 0.0 0.0 16.28999089631971 0.0 0.0 0.0 34.40246978574605" Properties=species:S:1:pos:R:3:initial_magmoms:R:1 pbc="T T T"
Si      -1.13031423       1.09084356       1.71272792       0.00000000
Si       2.19410010       0.66301929      -0.48947861       0.00000000
Si       0.50490855      -2.25989541       0.50953526       0.00000000
Si      -1.31807277       0.74209095      -1.89640280       0.00000000
Si      -0.74771100      -2.95158510      -1.41851783       0.00000000
Si      -1.66245966      -1.35299853      -2.93394747       0.00000000
Si       2.14373142       2.98758600      -0.80887132       0.00000000
Si      -3.10210470       1.99467792      -0.88280227       0.00000000
Si      -3.43427409       1.08146052       1.23154030       0.00000000
Si      -0.61206417       3.37025439       1.70158151       0.00000000
