10
Lattice="16.28999089631971 0.0 0.0 0.0 16.28999089631971 0.0 0.0 0.0 34.40246978574605" Properties=species:S:1:pos:R:3:initial_magmoms:R:1 pbc="T T T"
Si      -2.01150549       0.68137812      -0.98053974       0.00000000
Si       1.68521679       0.37185183      -1.58808770       0.00000000
Si       0.29903553       1.92500559       1.33295884       0.00000000
Si      -0.37157490      -2.19693456       0.86143832       0.00000000
Si      -3.58559190      -0.79630407      -0.13375688       0.00000000
Si       0.46934748       0.70970643      -3.63510460       0.00000000
Si      -1.91168037       2.61897588       1.96070106       0.00000000
Si      -2.50365897      -2.91411810       0.02232722       0.00000000
Si       1.55191572       3.52857690       0.04265909       0.00000000
Si      -1.87805781       0.86903892      -3.27418809       0.00000000
