10
Lattice="16.28999089631971 0.0 0.0 0.0 16.28999089631971 0.0 0.0 0.0 34.40246978574605" Properties=species:S:1:pos:R:3:initial_magmoms:R:1 pbc="T T T"
Si       1.35724479       1.35732989      -1.35652454       0.00000000
Si      -1.35705474      -1.35798327      -1.35710939       0.00000000
Si      -1.35822762       1.35751040       1.35741901       0.00000000
Si       1.35835489      -1.35760860       1.35755662       0.00000000
Si      -0.00180819      -2.71503801      -2.71236104       0.00000000
Si      -2.71430496      -0.00198738       2.71325550       0.00000000
Si      -2.71381626       2.71423884       0.00068805       0.00000000
Si      -2.71446786      -2.71495656       0.00048163       0.00000000
Si      -2.71538010       0.00423540      -2.71466601       0.00000000
Si      -0.00158013       2.71239318      -2.71803745       0.00000000
