10
Lattice="16.28999089631971 0.0 0.0 0.0 16.28999089631971 0.0 0.0 0.0 34.40246978574605" Properties=species:S:1:pos:R:3:initial_magmoms:R:1 pbc="T T T"
Si       1.34833959      -1.34902377       1.35814146       0.00000000
Si      -1.35718506      -1.35496962      -1.35614612       0.00000000
Si       1.35607734       1.35949778      -1.35583649       0.00000000
Si      -1.35723393       1.35978029       1.35803825       0.00000000
Si       0.01076769       2.69676782       2.72443631       0.00000000
Si      -0.00016290      -2.71296918      -2.71277387       0.00000000
Si       2.71430496       0.00198738      -2.71325550       0.00000000
Si      -2.71477737       0.00195480      -2.71315230       0.00000000
Si       2.71666701      -2.71197549       0.00423151       0.00000000
Si       0.00048870       2.71622622      -2.71256745       0.00000000
