10
Lattice="16.28999089631971 0.0 0.0 0.0 16.28999089631971 0.0 0.0 0.0 34.40246978574605" Properties=species:S:1:pos:R:3:initial_magmoms:R:1 pbc="T T T"
Si      -2.32507170      -0.40474134      -0.63593001       0.00000000
Si       1.50843284      -1.16289423      -1.58007192       0.00000000
Si       1.23501006       1.90722573       1.10875782       0.00000000
Si       1.73996326      -1.58799807       1.10239336       0.00000000
Si      -0.37175409      -1.60840944       2.09211856       0.00000000
Si       2.66587383       0.26837775       2.11059270       0.00000000
Si       3.13588106       0.64552383      -1.87208024       0.00000000
Si       2.67603390       2.71014679      -0.57011805       0.00000000
Si      -3.68782794       0.62208252       1.13707107       0.00000000
Si      -3.01369887       0.62130060      -2.69072187       0.00000000
