10
Lattice="16.28999089631971 0.0 0.0 0.0 16.28999089631971 0.0 0.0 0.0 34.40246978574605" Properties=species:S:1:pos:R:3:initial_magmoms:R:1 pbc="T T T"
Si       1.74206237       0.52838244       1.37296893       0.00000000
Si       1.12863962      -0.90093474      -1.78975509       0.00000000
Si      -1.54811756       1.62805518      -0.50606061       0.00000000
Si      -0.23380385       1.27690794       2.71979649       0.00000000
Si      -3.11886452      -0.02580336      -1.19448882       0.00000000
Si      -1.26160904       2.94677955       1.44531737       0.00000000
Si       2.50620998      -1.45526715       2.39417242       0.00000000
Si      -3.29285801      -1.88468784       0.41313949       0.00000000
Si       1.04204198       0.49870206      -3.73862169       0.00000000
Si       0.09300124      -2.66288720      -2.87622009       0.00000000
