10
Lattice="16.28999089631971 0.0 0.0 0.0 16.28999089631971 0.0 0.0 0.0 34.40246978574605" Properties=species:S:1:pos:R:3:initial_magmoms:R:1 pbc="T T T"
Si      -1.35430825      -1.34014572       1.37107680       0.00000000
Si      -1.35470572       1.35695700      -1.35958637       0.00000000
Si       1.36135530      -1.35866745      -1.35762542       0.00000000
Si       1.34578206       1.37114559       1.36364586       0.00000000
Si       2.68698663      -0.00684180       2.68628395       0.00000000
Si      -2.70229615       2.70537804      -0.00165132       0.00000000
Si      -2.71055598      -0.00066789      -2.71525085       0.00000000
Si       0.00329058       2.71305063      -2.71497563       0.00000000
Si      -2.71333475      -2.71639008      -0.00061924       0.00000000
Si       0.00345348      -2.71586880      -2.71470041       0.00000000
