10
Lattice="16.28999089631971 0.0 0.0 0.0 16.28999089631971 0.0 0.0 0.0 34.40246978574605" Properties=species:S:1:pos:R:3:initial_magmoms:R:1 pbc="T T T"
Si       1.34759043      -1.34842104      -1.35793505       0.00000000
Si      -1.36491679       1.36761066      -1.35304989       0.00000000
Si      -1.36261990      -1.35254241       1.37424183       0.00000000
Si       1.33265413       1.37593485       1.38067509       0.00000000
Si      -2.29673737       0.36548244       2.73830052       0.00000000
Si      -0.54135955       2.21646627       2.80383726       0.00000000
Si       2.70229615      -2.70537804       0.00165132       0.00000000
Si       2.70558673       0.00767259      -2.71332431       0.00000000
Si      -0.00825983      -2.70604593      -2.71359953       0.00000000
Si      -2.73024685      -2.70260874       0.00780937       0.00000000
