10
Lattice="16.28999089631971 0.0 0.0 0.0 16.28999089631971 0.0 0.0 0.0 34.40246978574605" Properties=species:S:1:pos:R:3:initial_magmoms:R:1 pbc="T T T"
Si       1.41399155       0.05580954       1.86578459       0.00000000
Si       1.04717496      -1.37368683      -1.64127395       0.00000000
Si      -1.87749159      -1.16642916       0.95669882       0.00000000
Si      -0.25434457       2.48585400      -0.47757535       0.00000000
Si      -0.02281415       2.06075016       2.20488992       0.00000000
Si      -3.39565443      -0.57857193      -0.79910101       0.00000000
Si      -0.86049060       2.05543962      -2.87505041       0.00000000
Si       2.46060776      -0.02316438      -2.90948730       0.00000000
Si      -2.61586842       0.20445579      -2.94058715       0.00000000
Si      -1.48307811      -3.54910230       0.88428158       0.00000000
