10
Lattice="16.28999089631971 0.0 0.0 0.0 16.28999089631971 0.0 0.0 0.0 34.40246978574605" Properties=species:S:1:pos:R:3:initial_magmoms:R:1 pbc="T T T"
Si      -1.02542292      -0.13100418      -2.04481514       0.00000000
Si      -1.55945799       0.71096076       1.58468185       0.00000000
Si       0.40702194      -2.08761237       0.97937006       0.00000000
Si       2.18507544       1.07942427       0.19189708       0.00000000
Si       0.41449905      -1.74990438      -2.86617457       0.00000000
Si      -0.04860936       0.41829462       3.43842557       0.00000000
Si       1.93865661       1.43140230       2.67623843       0.00000000
Si      -2.27123325       2.90488167       0.65519540       0.00000000
Si       1.96558398       2.88614817      -1.48598111       0.00000000
Si      -1.51857009      -3.57515001      -0.08414849       0.00000000
