10
Lattice="16.28999089631971 0.0 0.0 0.0 16.28999089631971 0.0 0.0 0.0 34.40246978574605" Properties=species:S:1:pos:R:3:initial_magmoms:R:1 pbc="T T T"
Si       2.34284409      -0.29739024       0.34681149       0.00000000
Si      -1.33973847      -1.10889288      -1.65149149       0.00000000
Si       0.28015542       2.20903803      -1.06320892       0.00000000
Si      -1.32678792      -0.86423337       2.02407044       0.00000000
Si      -2.77654416       0.89604774      -1.31238615       0.00000000
Si      -1.85063359       2.75242356      -0.30418681       0.00000000
Si      -0.62796321      -3.30281379      -0.72200504       0.00000000
Si       2.37117240       0.63978975       2.50415718       0.00000000
Si      -1.18315899       2.84425029       1.94339660       0.00000000
Si       1.17675702       2.75762007       2.26715843       0.00000000
