10
Lattice="16.28999089631971 0.0 0.0 0.0 16.28999089631971 0.0 0.0 0.0 34.40246978574605" Properties=species:S:1:pos:R:3:initial_magmoms:R:1 pbc="T T T"
Si       0.70498233      -1.13977872      -1.93861466       0.00000000
Si       1.73819187       1.31285997       0.95714605       0.00000000
Si      -0.77191794      -1.79479962       1.39894281       0.00000000
Si      -1.50469101       1.59146784      -1.04628290       0.00000000
Si       3.59497494      -0.36154026       1.11594794       0.00000000
Si      -3.56171795       0.20398338      -1.34678864       0.00000000
Si       2.69224830      -0.12667104      -2.70080180       0.00000000
Si      -2.90924576      -1.19257461       2.17795277       0.00000000
Si       2.19326931       3.09549096      -0.56619616       0.00000000
Si       0.77561577       2.61210150       2.71521645       0.00000000
