10
Lattice="16.28999089631971 0.0 0.0 0.0 16.28999089631971 0.0 0.0 0.0 34.40246978574605" Properties=species:S:1:pos:R:3:initial_magmoms:R:1 pbc="T T T"
Si       0.61677198       0.81528192      -2.19071610       0.00000000
Si       0.13774824      -2.41807131      -0.35093979       0.00000000
Si       1.68691095       0.76937670       1.62740974       0.00000000
Si      -2.25135035       1.09486719       0.52697733       0.00000000
Si      -0.92875154      -2.95018416       1.68716687       0.00000000
Si       2.43871074      -2.40280758      -0.84599161       0.00000000
Si      -1.82863134      -1.08646155       3.01733910       0.00000000
Si       0.39128580       2.12617080       3.02304992       0.00000000
Si      -1.45098451       3.35896542       1.46888307       0.00000000
Si       3.90925791      -0.63182394       0.07981377       0.00000000
