10
Lattice="10.86 0.0 0.0 0.0 10.86 0.0 0.0 0.0 10.86" Properties=species:S:1:pos:R:3:initial_magmoms:R:1 pbc="T T T"
Si      -1.50721596      -0.65267514      -1.76425044       0.00000000
Si       1.16784096      -2.37069456       0.38013258       0.00000000
Si      -1.46107182       1.98094002       1.06058760       0.00000000
Si       0.98747808       2.16757998      -1.62928236       0.00000000
Si      -0.26990358      -2.38298808       2.19819432       0.00000000
Si      -0.34338234      -1.96931982      -3.03034182       0.00000000
Si      -3.05838234      -1.96931982      -0.31534182       0.00000000
Si      -1.67138658      -0.75095814       3.34504290       0.00000000
Si       3.52398312      -0.84124818      -1.35251526       0.00000000
Si       2.37161766       0.74568018      -3.03034182       0.00000000
