10
Lattice="10.86 0.0 0.0 0.0 10.86 0.0 0.0 0.0 10.86" Properties=species:S:1:pos:R:3:initial_magmoms:R:1 pbc="T T T"
Si       1.56263454       1.58692836       1.03717344       0.00000000
Si       1.56263454      -1.12807164      -1.67782656       0.00000000
Si      -1.15236546       1.58692836      -1.67782656       0.00000000
Si      -0.18275208      -2.34141600       2.24409954       0.00000000
Si      -2.35614216      -1.52944638       1.73264784       0.00000000
Si      -2.50892064      -2.64965538      -0.30890184       0.00000000
Si       0.19323198       2.89827336       2.34106848       0.00000000
Si       2.92013454       0.22942836       2.39467344       0.00000000
Si       2.92013454      -2.48557164      -0.32032656       0.00000000
Si      -3.52398312       0.84124818       1.35251526       0.00000000
