10
Lattice="10.86 0.0 0.0 0.0 10.86 0.0 0.0 0.0 10.86" Properties=species:S:1:pos:R:3:initial_magmoms:R:1 pbc="T T T"
Si       1.11768948       1.47974016       1.33907058       0.00000000
Si      -1.59731052      -1.23525984       1.33907058       0.00000000
Si      -1.59731052       1.47974016      -1.37592942       0.00000000
Si       1.46107182      -1.98094002      -1.06058760       0.00000000
Si      -0.21031476      -2.73189816       2.28445530       0.00000000
Si       2.46320004       0.03953040       2.58421302       0.00000000
Si       2.44854990       0.18663996      -2.68986996       0.00000000
Si       2.47518948       2.83724016      -0.01842942       0.00000000
Si      -0.04614414      -2.63361516      -2.82483804       0.00000000
Si      -0.23981052       2.83724016       2.69657058       0.00000000
