10
Lattice="16.28999089631971 0.0 0.0 0.0 16.28999089631971 0.0 0.0 0.0 34.51877397758722" Properties=species:S:1:pos:R:3:initial_magmoms:R:1 pbc="T T T"
Si      -0.39120598       0.88861950      -2.14834614       0.00000000
Si      -0.48803146       1.76088614       1.49956542       0.00000000
Si      -1.89896018      -1.46728917      -0.11867561       0.00000000
Si       2.19617382      -1.01149497       0.52485825       0.00000000
Si      -1.11060563      -3.32807958       1.00484207       0.00000000
Si       1.15775148       3.39272549       0.95737873       0.00000000
Si       1.54467156       1.97221468      -2.87175649       0.00000000
Si       1.97127408      -1.66811229       2.81773458       0.00000000
Si       2.34962562      -2.88552915      -0.92285994       0.00000000
Si      -0.21112817       1.10397330       3.72947946       0.00000000
