10
Lattice="16.28999089631971 0.0 0.0 0.0 16.28999089631971 0.0 0.0 0.0 34.51877397758722" Properties=species:S:1:pos:R:3:initial_magmoms:R:1 pbc="T T T"
Si      -2.28845178      -0.10746513      -0.56793771       0.00000000
Si       0.89116074      -1.56515949      -1.55904130       0.00000000
Si       0.95320935       2.21433295       0.25902902       0.00000000
Si       0.26259480      -2.05918632       1.76732770       0.00000000
Si      -1.43255563      -2.12175621      -1.62845859       0.00000000
Si       2.56422519       1.11049323       1.70709240       0.00000000
Si       1.24499583      -0.39912129       3.13865377       0.00000000
Si      -2.93111199       0.67665402       1.71323675       0.00000000
Si       2.60154558      -2.89167048      -0.67984763       0.00000000
Si      -0.45807480       3.52687364       1.73632982       0.00000000
