10
Lattice="16.28999089631971 0.0 0.0 0.0 16.28999089631971 0.0 0.0 0.0 34.51877397758722" Properties=species:S:1:pos:R:3:initial_magmoms:R:1 pbc="T T T"
Si       1.35562122      -1.35639078       1.35579464       0.00000000
Si      -1.35710361      -1.35736196      -1.35631243       0.00000000
Si       1.35711990       1.35823088      -1.35620887       0.00000000
Si      -1.35578412       1.35886619       1.36325070       0.00000000
Si       2.70580158       0.00385910       2.70589369       0.00000000
Si      -0.00034209      -2.71385277      -2.71369493       0.00000000
Si       2.71437012       0.00082916      -2.71352234       0.00000000
Si       2.71526607      -2.71307085      -0.00124268       0.00000000
Si      -2.71540128       0.00104745      -2.71393656       0.00000000
Si       0.00653229      -2.70474666       2.72474095       0.00000000
