10
Lattice="16.28999089631971 0.0 0.0 0.0 16.28999089631971 0.0 0.0 0.0 34.51877397758722" Properties=species:S:1:pos:R:3:initial_magmoms:R:1 pbc="T T T"
Si       1.41016014      -1.20009489       1.35272247       0.00000000
Si      -1.35018036      -1.36024988      -1.35009904       0.00000000
Si       1.36329381       1.35670125      -1.34440344       0.00000000
Si      -1.33333650       1.27692912       1.47419410       0.00000000
Si      -0.04484637      -2.28850295       2.79767916       0.00000000
Si       2.32437123       0.44058423       2.80261534       0.00000000
Si      -2.69926929      -2.70860576       0.01884726       0.00000000
Si      -2.70619254       2.70380280       0.03520917       0.00000000
Si      -2.70580158      -0.00385910      -2.70589369       0.00000000
Si       0.00864999       2.71139394      -2.70503072       0.00000000
