10
Lattice="16.28999089631971 0.0 0.0 0.0 16.28999089631971 0.0 0.0 0.0 34.51877397758722" Properties=species:S:1:pos:R:3:initial_magmoms:R:1 pbc="T T T"
Si       1.22293917      -1.79296441      -0.76693855       0.00000000
Si       0.39604248       2.30736610       0.06848529       0.00000000
Si      -1.98917190      -0.34553859      -1.25272153       0.00000000
Si       0.06597450      -1.29390397       2.00899377       0.00000000
Si      -3.20095242       1.35212050      -0.14370174       0.00000000
Si      -1.62782712       2.99625391      -0.84146462       0.00000000
Si       3.38313978      -1.11819382      -0.12782309       0.00000000
Si       0.50446872      -3.56883505       1.09079387       0.00000000
Si       3.63319128       1.03275505       0.87829618       0.00000000
Si       1.20526452      -2.00320315      -3.09481693       0.00000000
