10
Lattice="16.28999089631971 0.0 0.0 0.0 16.28999089631971 0.0 0.0 0.0 34.51877397758722" Properties=species:S:1:pos:R:3:initial_magmoms:R:1 pbc="T T T"
Si      -2.02386960       0.68888781      -0.90994991       0.00000000
Si       2.19714633       0.61739100      -0.52258001       0.00000000
Si      -0.39604248      -2.30736610      -0.06848529       0.00000000
Si      -0.04559571       0.78685587       2.28918281       0.00000000
Si      -2.15023113       2.83550256      -0.12937644       0.00000000
Si       3.23714880      -1.27461105       0.80981089       0.00000000
Si       2.02523796       2.98022292      -0.07224783       0.00000000
Si      -3.59699490      -0.95524560      -0.21218702       0.00000000
Si      -2.38521438      -2.65290469      -1.32120681       0.00000000
Si       0.90339453      -1.05573861       3.60648900       0.00000000
