10
Lattice="16.28999089631971 0.0 0.0 0.0 16.28999089631971 0.0 0.0 0.0 34.51877397758722" Properties=species:S:1:pos:R:3:initial_magmoms:R:1 pbc="T T T"
Si      -1.35677781      -1.35752715      -1.35700280       0.00000000
Si       1.35793440       1.35726651      -1.35645050       0.00000000
Si      -1.35767376       1.35739683       1.35796933       0.00000000
Si       1.35769005      -1.35783666       1.35790029       0.00000000
Si      -2.71176861      -0.00179190      -2.71611125       0.00000000
Si       2.71164969       0.00309510      -2.71635288       0.00000000
Si      -2.71374784       0.00109143       2.71538635       0.00000000
Si      -2.71497122       2.71463076       0.00020711       0.00000000
Si       2.71508688       2.71464705       0.00006904       0.00000000
Si      -2.71483113      -2.71502009       0.00017259       0.00000000
