10
Lattice="16.28999089631971 0.0 0.0 0.0 16.28999089631971 0.0 0.0 0.0 34.51877397758722" Properties=species:S:1:pos:R:3:initial_magmoms:R:1 pbc="T T T"
Si       1.11110832       1.59203799       1.45631337       0.00000000
Si      -1.21878522      -1.60837686       1.35645050       0.00000000
Si       1.40317173      -1.27690794      -1.59407787       0.00000000
Si      -1.29437082       1.40657634      -1.60957681       0.00000000
Si      -2.65432518      -2.72083725      -0.16230737       0.00000000
Si       2.71233387      -2.67823890      -0.19768913       0.00000000
Si      -2.61666270       2.79704187      -0.28757607       0.00000000
Si       1.00338255      -3.55718214       1.16611387       0.00000000
Si       2.63844243       2.83907007       0.03120499       0.00000000
Si       0.04230513      -2.64106512      -2.98090491       0.00000000
