10
Lattice="16.28999089631971 0.0 0.0 0.0 16.28999089631971 0.0 0.0 0.0 34.51877397758722" Properties=species:S:1:pos:R:3:initial_magmoms:R:1 pbc="T T T"
Si      -1.11812931       1.61152083      -1.34740658       0.00000000
Si       1.23167061       1.51143507       1.40253451       0.00000000
Si      -1.52897940      -1.20552516       1.41690468       0.00000000
Si       2.01609927      -0.98228700      -1.12075618       0.00000000
Si      -0.08853615       1.06635969      -3.53931543       0.00000000
Si       3.52888641       1.04479173      -1.13981055       0.00000000
Si      -2.78637192       2.67419898       0.19458244       0.00000000
Si      -0.14657742      -2.52980442       2.95194161       0.00000000
Si       2.56012011       0.18539649       2.96117884       0.00000000
Si      -3.03679809      -2.51942769       0.10365994       0.00000000
