10
Lattice="16.28999089631971 0.0 0.0 0.0 16.28999089631971 0.0 0.0 0.0 34.51877397758722" Properties=species:S:1:pos:R:3:initial_magmoms:R:1 pbc="T T T"
Si      -1.35713619      -1.35786924      -1.35758962       0.00000000
Si       1.35803214       1.35731538      -1.35803836       0.00000000
Si       1.35853713      -1.35778779       1.35869422       0.00000000
Si      -1.36091547       1.35977517       1.36028209       0.00000000
Si      -2.71428867      -2.71393029      -0.00072489       0.00000000
Si       2.71489140       2.71518462       0.00065586       0.00000000
Si      -2.71428867       2.71585251       0.00013808       0.00000000
Si       2.71601541      -2.71415835      -0.00062134       0.00000000
Si       0.00013032       2.71492398      -2.71542087       0.00000000
Si      -2.71487511       0.00017919      -2.71548991       0.00000000
