10
Lattice="16.28999089631971 0.0 0.0 0.0 16.28999089631971 0.0 0.0 0.0 34.51877397758722" Properties=species:S:1:pos:R:3:initial_magmoms:R:1 pbc="T T T"
Si      -1.35337320       1.35607734      -1.36014401       0.00000000
Si      -1.35110889      -1.36063854       1.36746200       0.00000000
Si       1.36091547      -1.35977517      -1.36028209       0.00000000
Si       1.36267479       1.36922337       1.35893585       0.00000000
Si       0.05665662      -2.70710478       2.69322529       0.00000000
Si       2.71394658       2.71430496      -0.00307217       0.00000000
Si      -2.71156824      -0.00228060      -2.71714681       0.00000000
Si      -2.71549413       2.71422351      -0.00176046       0.00000000
Si      -2.71305063      -2.71762812      -0.00017259       0.00000000
Si       0.00325800       2.71308321      -2.71794074       0.00000000
