10
Lattice="16.28999089631971 0.0 0.0 0.0 16.28999089631971 0.0 0.0 0.0 34.51877397758722" Properties=species:S:1:pos:R:3:initial_magmoms:R:1 pbc="T T T"
Si       2.14571880       0.72088137      -0.49317000       0.00000000
Si      -0.13817178      -0.51613236       2.28400499       0.00000000
Si      -1.80017532       1.48366062      -0.40783954       0.00000000
Si      -0.65120904      -2.11973625      -0.87187568       0.00000000
Si      -2.31489045      -1.41690420       1.78545006       0.00000000
Si      -3.59484462      -0.01115865       0.18305316       0.00000000
Si       2.22549093       2.78505243       0.70269907       0.00000000
Si      -1.65807765       2.06788518      -2.73530370       0.00000000
Si       2.27235726       1.35071793      -2.78245637       0.00000000
Si      -1.66053744      -3.42854001       0.81474708       0.00000000
