10
Lattice="16.28999089631971 0.0 0.0 0.0 16.28999089631971 0.0 0.0 0.0 34.51877397758722" Properties=species:S:1:pos:R:3:initial_magmoms:R:1 pbc="T T T"
Si       0.13817178       0.51613236      -2.28400499       0.00000000
Si      -0.28606869       1.71403380       1.65728178       0.00000000
Si      -2.17671867      -0.90077184      -0.49855493       0.00000000
Si       1.86369003      -1.33467228       0.85320101       0.00000000
Si      -0.51303726      -1.60360389      -3.15588067       0.00000000
Si      -1.52236566      -2.91240765      -1.46925792       0.00000000
Si      -2.94985836      -1.39673718       1.60363958       0.00000000
Si      -1.66200354       1.99979298      -2.69184454       0.00000000
Si      -0.62304363       0.38750652       3.68543348       0.00000000
Si       2.28389058       1.23701373      -2.77717499       0.00000000
