10
Lattice="16.28999089631971 0.0 0.0 0.0 16.28999089631971 0.0 0.0 0.0 34.51877397758722" Properties=species:S:1:pos:R:3:initial_magmoms:R:1 pbc="T T T"
Si       2.25424278       0.27448650      -0.56372641       0.00000000
Si      -0.97720452       2.13371307       0.38001740       0.00000000
Si       0.52268094      -0.94811058       2.12521855       0.00000000
Si      -1.27026162      -0.75359169      -1.88217172       0.00000000
Si      -1.47914829      -1.94277798       2.71186544       0.00000000
Si       2.28534039       2.48202585      -1.41202576       0.00000000
Si       0.76957218       3.66440292       0.06441207       0.00000000
Si       2.77682598      -1.52694315      -1.99673960       0.00000000
Si      -1.20221829       2.32753149       2.72280789       0.00000000
Si      -3.50138889       0.04435767      -1.48593049       0.00000000
