10
Lattice="16.28999089631971 0.0 0.0 0.0 16.28999089631971 0.0 0.0 0.0 34.51877397758722" Properties=species:S:1:pos:R:3:initial_magmoms:R:1 pbc="T T T"
Si       2.04002928       1.01532312      -0.69034135       0.00000000
Si      -0.27163575      -1.93839597      -1.55434674       0.00000000
Si      -1.99653498       1.33724610      -0.95675739       0.00000000
Si       0.41681223      -0.96770745       2.38521410       0.00000000
Si       1.90200411      -2.78834301      -0.91057125       0.00000000
Si       1.34395758      -2.95463133       1.43180503       0.00000000
Si       1.18501605       2.97347886      -1.62856215       0.00000000
Si       2.62373256       2.50792695       1.22703954       0.00000000
Si      -2.27346498      -2.93306337      -0.96769985       0.00000000
Si      -3.83707692       0.03810231      -0.13731576       0.00000000
