10
Lattice="16.28999089631971 0.0 0.0 0.0 16.28999089631971 0.0 0.0 0.0 34.51877397758722" Properties=species:S:1:pos:R:3:initial_magmoms:R:1 pbc="T T T"
Si       1.35499080      -1.35573525       1.35910845       0.00000000
Si      -1.35958874       1.35910728       1.35852163       0.00000000
Si      -1.36215581      -1.35702216      -1.36150060       0.00000000
Si       1.35536547       1.35316143      -1.38385152       0.00000000
Si       2.71150797      -2.71548924      -0.00103556       0.00000000
Si       2.71176861       0.00179190       2.71611125       0.00000000
Si      -2.71580594      -2.71297081      -0.00179498       0.00000000
Si      -0.00306252      -2.71322819       2.71628384       0.00000000
Si       2.71180119       2.71849149      -0.00310669       0.00000000
Si      -0.00320261       2.71642266       2.71631836       0.00000000
