10
Lattice="16.28999089631971 0.0 0.0 0.0 16.28999089631971 0.0 0.0 0.0 34.51877397758722" Properties=species:S:1:pos:R:3:initial_magmoms:R:1 pbc="T T T"
Si      -1.56108699      -0.98947089       1.42117324       0.00000000
Si      -1.46554614       1.23448878      -1.38699963       0.00000000
Si       1.24406730      -1.47575997      -1.39121093       0.00000000
Si       1.18887678       1.65459159       1.39183226       0.00000000
Si      -3.10655187       0.91800666       1.89528886       0.00000000
Si      -0.11645721       2.58284466      -2.75594594       0.00000000
Si       2.59533909      -0.13067838      -2.75321895       0.00000000
Si      -2.78031204       2.60177773       0.06958989       0.00000000
Si       2.64388329       2.74299965      -0.05312442       0.00000000
Si       2.64373668      -2.77754274      -0.06461918       0.00000000
