10
Lattice="16.28999089631971 0.0 0.0 0.0 16.28999089631971 0.0 0.0 0.0 34.51877397758722" Properties=species:S:1:pos:R:3:initial_magmoms:R:1 pbc="T T T"
Si       0.19599476      -1.88585162      -1.38689608       0.00000000
Si       0.95296826      -0.70905972       2.04492783       0.00000000
Si      -2.31218535       0.55105812      -0.09175095       0.00000000
Si       1.39883533       1.81333764      -0.77629314       0.00000000
Si      -2.20478538       2.51348184      -1.44733848       0.00000000
Si       2.34338980      -2.65807907      -0.95371974       0.00000000
Si       1.80466322       1.36741518       2.88998241       0.00000000
Si      -0.00963879       3.15108873      -2.11617462       0.00000000
Si      -0.08090852      -1.22893878      -3.61681012       0.00000000
Si       2.96312656       0.88860321      -2.29943489       0.00000000
