10
Lattice="16.28999089631971 0.0 0.0 0.0 16.28999089631971 0.0 0.0 0.0 34.51877397758722" Properties=species:S:1:pos:R:3:initial_magmoms:R:1 pbc="T T T"
Si       1.36023129       1.35976214      -1.34633649       0.00000000
Si       1.35208629      -1.35494097       1.36104150       0.00000000
Si      -1.36371735       1.35875216       1.35938460       0.00000000
Si      -1.36616085      -1.37293944      -1.37029599       0.00000000
Si      -2.59548570       0.12941265      -2.72106815       0.00000000
Si       2.61785187      -0.07002908      -2.71751271       0.00000000
Si      -0.01247814       2.67987116      -2.65826811       0.00000000
Si       2.71155195      -2.71235409       0.00113912       0.00000000
Si       2.70764235       2.71886942       0.00448744       0.00000000
Si       2.70933651       0.00233436       2.71821689       0.00000000
