10
Lattice="16.28999089631971 0.0 0.0 0.0 16.28999089631971 0.0 0.0 0.0 34.51877397758722" Properties=species:S:1:pos:R:3:initial_magmoms:R:1 pbc="T T T"
Si       2.36125179      -0.28926153       0.04666941       0.00000000
Si      -0.05981688       0.67899978      -2.28497152       0.00000000
Si      -0.91768086       1.94927769       1.02748640       0.00000000
Si      -0.73366902      -1.76994108       1.49801207       0.00000000
Si       2.79153585       0.86688864       2.03080965       0.00000000
Si      -0.61144515      -0.48063645       3.53924639       0.00000000
Si      -1.74421917       2.36654604      -2.13923318       0.00000000
Si      -3.07542168       2.04462306       0.15840674       0.00000000
Si       2.62958067      -2.64503173      -0.07297273       0.00000000
Si       1.95654303       2.04234246      -2.57061453       0.00000000
