10
Lattice="16.28999089631971 0.0 0.0 0.0 16.28999089631971 0.0 0.0 0.0 34.51877397758722" Properties=species:S:1:pos:R:3:initial_magmoms:R:1 pbc="T T T"
Si       2.25999315       0.42166665       0.24977799       0.00000000
Si      -0.91465092       2.13542352      -0.27487315       0.00000000
Si      -0.44952255      -1.47678624       1.77540509       0.00000000
Si      -0.12222387      -1.28930463      -2.04123432       0.00000000
Si       2.87438679      -1.82863884       0.03123951       0.00000000
Si      -0.30623571       2.42991414      -2.51175999       0.00000000
Si       1.79664039      -2.26481988       2.13208779       0.00000000
Si      -3.10611204       1.78385274       0.41774644       0.00000000
Si       0.61144515       0.48063645      -3.53924639       0.00000000
Si      -1.74777039      -3.12262489       0.60587386       0.00000000
