10
Lattice="16.28999089631971 0.0 0.0 0.0 16.28999089631971 0.0 0.0 0.0 34.51877397758722" Properties=species:S:1:pos:R:3:initial_magmoms:R:1 pbc="T T T"
Si      -1.34441370      -0.81806751      -1.77029631       0.00000000
Si       0.60760071       2.20947786      -0.65047214       0.00000000
Si      -0.99145827       0.44444007       2.12839427       0.00000000
Si       1.89087804      -1.43185842       0.38906132       0.00000000
Si       2.12345037       1.59814674       1.83239562       0.00000000
Si       2.30057154      -0.70851726       2.68987697       0.00000000
Si      -2.45904066       1.20014946      -2.49463867       0.00000000
Si       0.04854420      -1.44756198       3.46078518       0.00000000
Si       3.34507005      -1.31792616      -1.53014907       0.00000000
Si      -1.08286146       3.07838646      -2.18700719       0.00000000
