10
Lattice="16.28999089631971 0.0 0.0 0.0 16.28999089631971 0.0 0.0 0.0 34.51877397758722" Properties=species:S:1:pos:R:3:initial_magmoms:R:1 pbc="T T T"
Si       1.26413658      -0.89803579      -1.78351701       0.00000000
Si       1.72327023       0.87639060       1.38820231       0.00000000
Si      -0.99035055      -1.85577376       1.23754503       0.00000000
Si      -1.86611724       2.02415305      -0.02685562       0.00000000
Si       0.46763703       1.80528061      -2.82353373       0.00000000
Si      -3.09957975      -0.52137841      -1.69283614       0.00000000
Si      -2.26074249      -0.42651977       2.73541903       0.00000000
Si       0.46564965       2.30618182       2.75937852       0.00000000
Si       3.16943127       2.18428375       0.01132216       0.00000000
Si       0.21758553      -0.34566826      -3.82965300       0.00000000
