10
Lattice="16.28999089631971 0.0 0.0 0.0 16.28999089631971 0.0 0.0 0.0 34.51877397758722" Properties=species:S:1:pos:R:3:initial_magmoms:R:1 pbc="T T T"
Si       1.35602847      -1.35426915      -1.35731347       0.00000000
Si      -1.35728280      -1.35612621       1.35634694       0.00000000
Si      -1.35573525       1.35897696      -1.35803836       0.00000000
Si       1.35791811       1.35927018       1.35600176       0.00000000
Si       0.01746288       2.68524360      -2.70638040       0.00000000
Si       0.00861741      -2.71337643      -2.70813741       0.00000000
Si       2.70319518       0.02059056      -2.72327390       0.00000000
Si       0.00035838      -2.71349046       2.71334974       0.00000000
Si       2.71446786      -2.71277370      -0.00096653       0.00000000
Si      -2.71467963       0.00166158       2.71404012       0.00000000
