10
Lattice="16.28999089631971 0.0 0.0 0.0 16.28999089631971 0.0 0.0 0.0 34.51877397758722" Properties=species:S:1:pos:R:3:initial_magmoms:R:1 pbc="T T T"
Si      -0.93063141       0.94014477      -1.98189652       0.00000000
Si       1.68440229      -1.68754626      -0.14573835       0.00000000
Si       2.08199232       1.36572102       0.20480000       0.00000000
Si      -1.33120251      -0.32192298       2.29763992       0.00000000
Si       0.82653831      -0.41726835       3.16671958       0.00000000
Si      -2.19167289       2.73569373      -0.96051994       0.00000000
Si       1.74421917      -2.36654604       2.13923318       0.00000000
Si       2.17855944       1.47893652       2.58642414       0.00000000
Si       3.70076220      -0.32420358      -0.43138136       0.00000000
Si      -2.04173973      -0.65189322      -3.43820988       0.00000000
