10
Lattice="16.28999089631971 0.0 0.0 0.0 16.28999089631971 0.0 0.0 0.0 34.51877397758722" Properties=species:S:1:pos:R:3:initial_magmoms:R:1 pbc="T T T"
Si      -2.19146112      -0.35157078       0.69261959       0.00000000
Si       0.60841521       0.29449062      -2.23688684       0.00000000
Si       0.91465092      -2.13542352       0.27487315       0.00000000
Si       0.20536803       2.06101080       1.19728434       0.00000000
Si      -1.54932561       0.38983599      -3.10596650       0.00000000
Si      -1.99708884      -0.43663716       3.01808165       0.00000000
Si       3.17464407      -1.71375687       0.52465114       0.00000000
Si      -0.62090964       1.44159984       3.32571314       0.00000000
Si      -3.30346539       1.72823868       0.18143078       0.00000000
Si       2.39850702       2.42077545       1.86874391       0.00000000
