10
Lattice="16.28999089631971 0.0 0.0 0.0 16.28999089631971 0.0 0.0 0.0 34.51877397758722" Properties=species:S:1:pos:R:3:initial_magmoms:R:1 pbc="T T T"
Si      -1.35536547      -1.35316143       1.38385152       0.00000000
Si       1.35643572       1.36533006       1.38074483       0.00000000
Si      -1.41979079       1.30629510      -1.41193601       0.00000000
Si       1.32629922      -1.37179719      -1.52995231       0.00000000
Si       0.06890670       2.50792695      -2.75227456       0.00000000
Si       2.70870120      -2.69607645       0.00508462       0.00000000
Si      -2.71752128      -2.71018359       0.02235092       0.00000000
Si       2.71669959       2.72662020      -0.01415271       0.00000000
Si      -2.72106924       2.72727180      -0.00733524       0.00000000
Si      -0.00037467      -2.70889668       2.74295997       0.00000000
