10
Lattice="16.28999089631971 0.0 0.0 0.0 16.28999089631971 0.0 0.0 0.0 34.51877397758722" Properties=species:S:1:pos:R:3:initial_magmoms:R:1 pbc="T T T"
Si      -1.35685926      -1.35786924      -1.35869422       0.00000000
Si       1.35816246       1.35685926      -1.35876326       0.00000000
Si      -1.36186029       1.35889551       1.35655406       0.00000000
Si       1.36089918      -1.35842310       1.35914297       0.00000000
Si       2.71406061       2.71404432      -0.00214017       0.00000000
Si       2.70441693       0.02106297       2.72429220       0.00000000
Si      -2.71401174       2.71573848      -0.00321025       0.00000000
Si      -2.71489140      -2.71518462      -0.00065586       0.00000000
Si       0.00032580       2.71472850      -2.71562799       0.00000000
Si      -2.71476108      -0.00026064      -2.71607673       0.00000000
