10
Lattice="16.28999089631971 0.0 0.0 0.0 16.28999089631971 0.0 0.0 0.0 34.51877397758722" Properties=species:S:1:pos:R:3:initial_magmoms:R:1 pbc="T T T"
Si       1.77852591       0.61786341      -1.42434897       0.00000000
Si       1.46921139      -0.54348327       1.76739673       0.00000000
Si      -0.86742621      -1.95530499      -1.16248940       0.00000000
Si      -2.14058745       1.98280251       0.14594546       0.00000000
Si       0.60103584       2.08624401      -2.80982977       0.00000000
Si      -2.09574108      -0.66593520      -2.80541137       0.00000000
Si      -2.78242974       0.67103397       2.33737105       0.00000000
Si       0.61786341      -2.77676082       2.44931550       0.00000000
Si      -0.82748313       3.41247807      -1.35776221       0.00000000
Si      -3.41684379       0.77721219      -1.48896815       0.00000000
