10
Lattice="16.28999089631971 0.0 0.0 0.0 16.28999089631971 0.0 0.0 0.0 34.51877397758722" Properties=species:S:1:pos:R:3:initial_magmoms:R:1 pbc="T T T"
Si       1.36055287       1.35474156       1.38925371       0.00000000
Si      -1.35410951      -1.36480878       1.38942630       0.00000000
Si       1.30127845      -1.42097670      -1.40460077       0.00000000
Si      -1.30694996       1.45262817      -1.53358024       0.00000000
Si      -2.69163254       2.70557352       0.02673826       0.00000000
Si      -2.72220887      -2.70242955       0.02812591       0.00000000
Si       2.69898000       2.72771163       0.02016588       0.00000000
Si      -0.22470752      -2.59364493      -2.82598944       0.00000000
Si       2.72106924      -2.72727180       0.00733524       0.00000000
Si       0.00437721       2.70863604       2.75115818       0.00000000
