10
Lattice="16.28999089631971 0.0 0.0 0.0 16.28999089631971 0.0 0.0 0.0 34.51877397758722" Properties=species:S:1:pos:R:3:initial_magmoms:R:1 pbc="T T T"
Si       1.29381696       1.40160789       1.38924335       0.00000000
Si      -1.28296782       1.37371941      -1.44751108       0.00000000
Si       1.42851897      -1.32623406      -1.45206756       0.00000000
Si      -1.31310432      -1.42967556       1.50370767       0.00000000
Si      -2.26626480       0.76409874       2.52574010       0.00000000
Si      -0.70710003       2.55630825       2.28714620       0.00000000
Si      -2.58936066      -2.63526588      -0.13120593       0.00000000
Si       0.82748313      -3.41247807       1.35776221       0.00000000
Si       2.68820838       2.71386513      -0.02395604       0.00000000
Si       2.60600904      -2.79461466      -0.06658675       0.00000000
