10
Lattice="16.28999089631971 0.0 0.0 0.0 16.28999089631971 0.0 0.0 0.0 34.51877397758722" Properties=species:S:1:pos:R:3:initial_magmoms:R:1 pbc="T T T"
Si      -1.87133004       1.38034944       0.30390346       0.00000000
Si       0.90932409      -0.24351921       2.15376559       0.00000000
Si       1.63196478       1.51931943      -0.82351485       0.00000000
Si      -0.32798286      -2.34719352      -0.67656835       0.00000000
Si       3.50352288      -0.00513135      -0.81364248       0.00000000
Si      -3.02454801       1.11376359      -1.73522522       0.00000000
Si       1.48191759      -2.57570964       2.21541615       0.00000000
Si       1.69236810      -3.41303193       0.00193305       0.00000000
Si       2.68833870       1.28532987       2.41945674       0.00000000
Si      -3.47120352       0.21212838       1.66453073       0.00000000
