10
Lattice="16.28999089631971 0.0 0.0 0.0 16.28999089631971 0.0 0.0 0.0 34.51877397758722" Properties=species:S:1:pos:R:3:initial_magmoms:R:1 pbc="T T T"
Si       0.85501323      -1.95815574       0.93822080       0.00000000
Si       2.07135495       0.91486269      -0.56831741       0.00000000
Si      -1.20976056      -0.29936133      -1.98659107       0.00000000
Si      -1.19982366       1.67174496       1.81254732       0.00000000
Si       1.43871651      -0.46555191       2.85560169       0.00000000
Si       2.61022815       1.34348517       1.77046891       0.00000000
Si      -0.48135321       3.44761560      -0.04518510       0.00000000
Si      -1.18501605      -2.97347886       1.62856215       0.00000000
Si      -3.18155103      -1.63623276       0.67180475       0.00000000
Si       3.34925658      -0.87035841      -1.46104244       0.00000000
