10
Lattice="16.28999089631971 0.0 0.0 0.0 16.28999089631971 0.0 0.0 0.0 34.51877397758722" Properties=species:S:1:pos:R:3:initial_magmoms:R:1 pbc="T T T"
Si       1.35607408       1.35630540      -1.35741703       0.00000000
Si      -1.35885569      -1.35816246      -1.35745155       0.00000000
Si       1.35853387      -1.35829278       1.36197351       0.00000000
Si      -1.36404673       1.35861858       1.35669213       0.00000000
Si      -2.71750824       2.71111212      -0.00096653       0.00000000
Si      -0.00122338       2.71353933      -2.71517924       0.00000000
Si       2.71374784      -0.00109143      -2.71538635       0.00000000
Si       2.71441573       2.71490769      -0.00069038       0.00000000
Si      -2.71563489      -0.00148239      -2.71500665       0.00000000
Si      -0.00108329      -2.71611152      -2.71521376       0.00000000
