10
Lattice="16.28999089631971 0.0 0.0 0.0 16.28999089631971 0.0 0.0 0.0 34.51877397758722" Properties=species:S:1:pos:R:3:initial_magmoms:R:1 pbc="T T T"
Si      -1.35640314      -1.35719489      -1.35786577       0.00000000
Si       1.35834304       1.35870655      -1.35745155       0.00000000
Si      -1.35620766       1.36080796       1.35983334       0.00000000
Si       1.36078515      -1.35836657       1.36138669       0.00000000
Si      -2.71371852       2.71405084      -0.00062134       0.00000000
Si      -2.71420722       0.00059458      -2.71486857       0.00000000
Si       0.00166158      -2.71464772      -2.71535183       0.00000000
Si      -2.71513575      -2.71505497      -0.00144979       0.00000000
Si       0.00156384       2.71538662      -2.71500665       0.00000000
Si      -0.00239463       2.71260103       2.71787171       0.00000000
