10
Lattice="16.28999089631971 0.0 0.0 0.0 16.28999089631971 0.0 0.0 0.0 34.51877397758722" Properties=species:S:1:pos:R:3:initial_magmoms:R:1 pbc="T T T"
Si      -1.77178185       1.63679639      -0.14294232       0.00000000
Si       1.59146784       0.76170574      -1.71392712       0.00000000
Si       0.20696445      -1.94500712       1.52397020       0.00000000
Si       1.22482881       1.09746219       1.92953151       0.00000000
Si      -0.84940947      -1.71101756      -1.71900139       0.00000000
Si       2.06316108      -2.90136044       0.46268990       0.00000000
Si       1.32313896       3.11747594      -1.59428499       0.00000000
Si      -3.77597313       0.35677055       0.19665357       0.00000000
Si       1.02214863      -3.23546834      -1.70912901       0.00000000
Si      -1.64955798       2.92610102       1.89829200       0.00000000
