10
Lattice="16.28999089631971 0.0 0.0 0.0 16.28999089631971 0.0 0.0 0.0 34.51877397758722" Properties=species:S:1:pos:R:3:initial_magmoms:R:1 pbc="T T T"
Si       1.35751086      -1.35324288       1.36045468       0.00000000
Si      -1.35785295      -1.35614250      -1.35731347       0.00000000
Si       1.35765747       1.35874890      -1.35741703       0.00000000
Si      -1.35990549       1.35910728       1.36262936       0.00000000
Si       2.71340901       2.71393029      -0.00034519       0.00000000
Si      -0.00048870      -2.71345625      -2.71424723       0.00000000
Si       2.71371852      -2.71405084       0.00062134       0.00000000
Si       2.71528236       0.00133578      -2.71438531       0.00000000
Si      -2.71549413       0.00122175      -2.71431627       0.00000000
Si       2.71132389      -0.00144981       2.71849305       0.00000000
