10
Lattice="16.28999089631971 0.0 0.0 0.0 16.28999089631971 0.0 0.0 0.0 34.51877397758722" Properties=species:S:1:pos:R:3:initial_magmoms:R:1 pbc="T T T"
Si       1.35346151      -1.35249354       1.35765866       0.00000000
Si      -1.35575154      -1.35518139      -1.35707184       0.00000000
Si      -1.35234693       1.35865116       1.36004045       0.00000000
Si       1.35869365       1.35940050      -1.35645050       0.00000000
Si       0.00187335      -2.71259451      -2.71404012       0.00000000
Si      -2.71340901      -2.71393029       0.00034519       0.00000000
Si      -2.71370223       0.00268785      -2.71431627       0.00000000
Si       2.71750824      -2.71111212       0.00096653       0.00000000
Si       2.71628487       0.00242721      -2.71421271       0.00000000
Si      -2.71313208       2.71775844       0.00065586       0.00000000
