10
Lattice="16.28999089631971 0.0 0.0 0.0 16.28999089631971 0.0 0.0 0.0 34.51877397758722" Properties=species:S:1:pos:R:3:initial_magmoms:R:1 pbc="T T T"
Si      -0.09656712      -0.11321550      -2.38162414       0.00000000
Si      -1.35202113      -1.89620487       0.58029543       0.00000000
Si      -0.18523359       2.39440194       0.30020995       0.00000000
Si       2.13177456      -0.67715901       0.99393413       0.00000000
Si      -2.17855944      -1.47893652      -2.58642414       0.00000000
Si       0.75478086       2.12006205      -3.06354290       0.00000000
Si       1.52220276      -1.80314010      -3.01780550       0.00000000
Si       1.54007289       3.39117075      -1.00950211       0.00000000
Si      -0.43434027      -3.84548256      -0.44719097       0.00000000
Si       2.27180340       0.43310223       3.15294658       0.00000000
