10
Lattice="16.28999089631971 0.0 0.0 0.0 16.28999089631971 0.0 0.0 0.0 34.51877397758722" Properties=species:S:1:pos:R:3:initial_magmoms:R:1 pbc="T T T"
Si      -0.52333254       2.31661719       0.19151027       0.00000000
Si      -1.83373272      -0.20302227       1.53297961       0.00000000
Si      -0.14002884      -1.11026124      -2.15901244       0.00000000
Si       1.60347357      -0.62721387       1.71948465       0.00000000
Si      -1.50001578       2.05775280       2.30751229       0.00000000
Si       0.08539218      -3.41169615      -1.56932790       0.00000000
Si       0.55697139      -0.31322412       3.82126493       0.00000000
Si      -1.24207992      -1.68533082       3.26140463       0.00000000
Si       1.87732869      -2.97847989       1.62238328       0.00000000
Si      -2.27180340      -0.43310223      -3.15294658       0.00000000
