10
Lattice="16.28999089631971 0.0 0.0 0.0 16.28999089631971 0.0 0.0 0.0 34.51877397758722" Properties=species:S:1:pos:R:3:initial_magmoms:R:1 pbc="T T T"
Si      -1.25340147       1.37616291      -1.41888464       0.00000000
Si       1.34052039       1.35534429       1.36469014       0.00000000
Si      -1.37484342      -1.35259128       1.36579474       0.00000000
Si       1.38468258      -1.25294535      -1.56031849       0.00000000
Si      -2.22597963      -0.40545810      -2.56357201       0.00000000
Si      -0.43360722      -2.06329140      -2.94054351       0.00000000
Si       0.52417962       2.17671867      -2.89432284       0.00000000
Si       2.54001825       0.64958004      -2.76052800       0.00000000
Si       2.69163254      -2.70557352      -0.02673826       0.00000000
Si       2.69600975       0.00306252       2.72441992       0.00000000
