10
Lattice="16.28999089631971 0.0 0.0 0.0 16.28999089631971 0.0 0.0 0.0 34.51877397758722" Properties=species:S:1:pos:R:3:initial_magmoms:R:1 pbc="T T T"
Si       1.35637188       1.35777938       1.35714088       0.00000000
Si      -1.35808199      -1.35762583       1.35700280       0.00000000
Si       1.35566326      -1.35897790      -1.35865970       0.00000000
Si      -1.35637154       1.35803676      -1.36093794       0.00000000
Si       2.71361069      -2.71396381      -0.00013808       0.00000000
Si       2.71466954      -0.00063003       2.71476502       0.00000000
Si       2.71442519       2.71527232      -0.00003452       0.00000000
Si      -0.00072804      -2.71531588       2.71490309       0.00000000
Si      -0.00140053       2.71572844       2.71490309       0.00000000
Si      -2.71614671      -0.00017300       2.71448887       0.00000000
