10
Lattice="16.28999089631971 0.0 0.0 0.0 16.28999089631971 0.0 0.0 0.0 34.51877397758722" Properties=species:S:1:pos:R:3:initial_magmoms:R:1 pbc="T T T"
Si       1.75246191      -0.05155785       1.53895136       0.00000000
Si       0.97668324       0.25886439      -2.11600203       0.00000000
Si      -1.58317623       1.42428357       1.02969560       0.00000000
Si      -0.33371694      -2.26077507      -0.77453268       0.00000000
Si      -1.16747172       0.74086920      -2.94676582       0.00000000
Si       1.50001578      -2.05775280      -2.30751229       0.00000000
Si       2.05698717      -2.37097692       1.51375264       0.00000000
Si      -0.80137026       1.38039831       3.26913684       0.00000000
Si       0.25793586      -3.74308362       0.95389233       0.00000000
Si      -2.52685593      -2.62053972      -1.44599225       0.00000000
