10
Lattice="16.28999089631971 0.0 0.0 0.0 16.28999089631971 0.0 0.0 0.0 34.51877397758722" Properties=species:S:1:pos:R:3:initial_magmoms:R:1 pbc="T T T"
Si      -1.35757602      -1.35102744      -1.39583644       0.00000000
Si       1.35878148       1.36330214      -1.39317850       0.00000000
Si      -1.46709369       1.35373158       1.39852891       0.00000000
Si       1.30137552      -1.57481946       1.44920250       0.00000000
Si       2.70099833       2.71194195      -0.00890585       0.00000000
Si      -2.72678310      -2.68636761      -0.02958261       0.00000000
Si      -2.73426021       2.71712869      -0.03386294       0.00000000
Si       2.73714258      -2.71608057      -0.02402508       0.00000000
Si      -0.00146610      -2.70795186      -2.75463422       0.00000000
Si       2.71429586       0.00692325      -2.75563527       0.00000000
