10
Lattice="16.28999089631971 0.0 0.0 0.0 16.28999089631971 0.0 0.0 0.0 34.51877397758722" Properties=species:S:1:pos:R:3:initial_magmoms:R:1 pbc="T T T"
Si      -1.87155810       1.52445078      -0.00987237       0.00000000
Si       1.04101245       0.33410790       2.17181892       0.00000000
Si       1.31950629       1.34801379      -1.54495763       0.00000000
Si      -0.08584830      -2.41113177      -0.49413653       0.00000000
Si      -0.81518418       1.29046122       3.23309922       0.00000000
Si      -3.50352288       0.00513135       0.81364248       0.00000000
Si       2.54876665       2.69001657       0.14214839       0.00000000
Si       2.30738076      -2.90898675      -0.20666402       0.00000000
Si      -1.02214863       3.23546834       1.70912901       0.00000000
Si      -1.93810275       2.68136658      -2.09073427       0.00000000
