10
Lattice="16.28999089631971 0.0 0.0 0.0 16.28999089631971 0.0 0.0 0.0 34.51877397758722" Properties=species:S:1:pos:R:3:initial_magmoms:R:1 pbc="T T T"
Si       1.10354976       1.33592661      -1.62493767       0.00000000
Si      -1.35238766       1.81739385       0.78678685       0.00000000
Si      -1.65408497      -1.51325955      -0.87677735       0.00000000
Si       2.07749628       0.86384241       0.96393730       0.00000000
Si       0.40925367       1.92652056       2.50592632       0.00000000
Si      -1.81262251      -2.36763747       1.30477587       0.00000000
Si       3.10708944       0.31868127      -1.22797155       0.00000000
Si      -2.60542979      -0.44777952       2.42487619       0.00000000
Si       1.54347750       3.28984695      -0.39758746       0.00000000
Si      -0.38214711      -2.84543946      -2.29798511       0.00000000
