10
Lattice="16.28999089631971 0.0 0.0 0.0 16.28999089631971 0.0 0.0 0.0 34.51877397758722" Properties=species:S:1:pos:R:3:initial_magmoms:R:1 pbc="T T T"
Si       0.61489048       1.90532727      -1.30888360       0.00000000
Si       1.35238766      -1.81739385      -0.78678685       0.00000000
Si      -2.30597886      -0.71221509      -0.31919528       0.00000000
Si       1.76164132       0.10912671       1.71913946       0.00000000
Si      -1.25304213      -2.26517337       1.63808933       0.00000000
Si       0.27294384      -1.09250514       3.05947801       0.00000000
Si       2.89586515       1.47245310      -1.18437432       0.00000000
Si       2.45593741      -0.48146724      -2.41172453       0.00000000
Si       3.42988393      -0.95355144       0.17715045       0.00000000
Si      -2.01627750      -1.83992292      -2.48814914       0.00000000
