10
Lattice="16.28999089631971 0.0 0.0 0.0 16.28999089631971 0.0 0.0 0.0 34.51877397758722" Properties=species:S:1:pos:R:3:initial_magmoms:R:1 pbc="T T T"
Si      -1.29784059       1.26649863       1.47519170       0.00000000
Si      -1.20684465      -1.68055785      -1.28991349       0.00000000
Si       1.44094824      -1.46186460       1.44820836       0.00000000
Si       0.86405418       1.90513179      -1.48584217       0.00000000
Si      -2.47080204       2.84555349       0.02616870       0.00000000
Si       0.08053776       2.60416827       2.84234648       0.00000000
Si      -2.63626771      -0.10647144       2.84427953       0.00000000
Si       2.83468806       2.68613955      -0.14597652       0.00000000
Si      -2.69554214      -2.88218970       0.05042505       0.00000000
Si       0.46139796      -2.74323600      -2.83190251       0.00000000
