10
Lattice="16.28999089631971 0.0 0.0 0.0 16.28999089631971 0.0 0.0 0.0 34.51877397758722" Properties=species:S:1:pos:R:3:initial_magmoms:R:1 pbc="T T T"
Si       1.35657960       1.35648459       1.35796933       0.00000000
Si       1.35759121      -1.35697329      -1.35776221       0.00000000
Si      -1.35716239       1.35840681      -1.35776221       0.00000000
Si      -1.35869365      -1.35940050       1.35645050       0.00000000
Si      -0.00523214      -2.71189404       2.71410916       0.00000000
Si      -2.71104058      -0.00074934       2.71649096       0.00000000
Si      -2.71444519      -2.71458189      -0.00062134       0.00000000
Si       2.71488867      -2.71420722       0.00000000       0.00000000
Si      -2.71434745       2.71536381      -0.00027615       0.00000000
Si      -0.00053274       2.71567332      -2.71410916       0.00000000
