10
Lattice="16.28999089631971 0.0 0.0 0.0 16.28999089631971 0.0 0.0 0.0 34.51877397758722" Properties=species:S:1:pos:R:3:initial_magmoms:R:1 pbc="T T T"
Si       1.80017532      -1.48366062       0.40783954       0.00000000
Si      -0.15345180       1.87403418       1.44771819       0.00000000
Si       0.14209767       0.58422456      -2.32746415       0.00000000
Si      -1.79466930      -1.49481927       0.59089270       0.00000000
Si      -0.51471513      -2.90056482       2.19328961       0.00000000
Si       1.66200354      -1.99979298       2.69184454       0.00000000
Si       2.08652094       2.81072547       1.40146301       0.00000000
Si       1.14896628      -3.60339687      -0.46403614       0.00000000
Si      -2.34962562       2.88552915       0.92285994       0.00000000
Si      -2.98221749      -1.82485467      -1.57429860       0.00000000
