10
Lattice="16.28999089631971 0.0 0.0 0.0 16.28999089631971 0.0 0.0 0.0 34.51877397758722" Properties=species:S:1:pos:R:3:initial_magmoms:R:1 pbc="T T T"
Si      -1.03163756       1.91363517       0.80256194       0.00000000
Si       2.28097467      -0.43287417       0.12450929       0.00000000
Si      -1.04413524       0.00866628      -2.09825937       0.00000000
Si      -0.61489048      -1.90532727       1.30888360       0.00000000
Si       1.84104693      -2.38679451      -1.10284093       0.00000000
Si      -3.14352107       1.55551581      -0.23410646       0.00000000
Si      -0.07815616       3.65153382      -0.42768785       0.00000000
Si       1.14675084      -1.79620056       3.02802306       0.00000000
Si       0.22193496       1.48054923      -3.49230083       0.00000000
Si       0.73749717      -3.72272112       0.52209675       0.00000000
