10
Lattice="16.28999089631971 0.0 0.0 0.0 16.28999089631971 0.0 0.0 0.0 34.51877397758722" Properties=species:S:1:pos:R:3:initial_magmoms:R:1 pbc="T T T"
Si      -2.28097467       0.43287417      -0.12450929       0.00000000
Si      -0.43992774      -1.95392034      -1.22735021       0.00000000
Si       1.84054194       1.29914379      -0.81944163       0.00000000
Si       0.53401878      -2.42600454       1.36152476       0.00000000
Si      -1.13422383      -1.36332639       2.90351378       0.00000000
Si      -2.89586515      -1.47245310       1.18437432       0.00000000
Si       1.56361194      -2.97116568      -0.83038409       0.00000000
Si       0.93667500       2.22236325       2.70758511       0.00000000
Si      -1.54347750      -3.28984695       0.39758746       0.00000000
Si       1.67497038       3.31449372       0.39641382       0.00000000
