10
Lattice="16.28999089631971 0.0 0.0 0.0 16.28999089631971 0.0 0.0 0.0 34.51877397758722" Properties=species:S:1:pos:R:3:initial_magmoms:R:1 pbc="T T T"
Si      -1.67763284      -0.95161293      -1.30493262       0.00000000
Si      -1.51782539       1.13406093       1.44549518       0.00000000
Si       1.73420082       0.98419293      -1.37600682       0.00000000
Si       1.17296145      -1.57905486       1.44902300       0.00000000
Si      -0.91443100      -0.81627561      -3.54154331       0.00000000
Si      -0.16408591       2.47280571       2.82052715       0.00000000
Si       2.47080204      -2.84555349      -0.02616870       0.00000000
Si       3.33485622      -0.94042170      -1.51201086       0.00000000
Si       2.71660185       2.64425796      -0.00468075       0.00000000
Si      -2.94494597       2.38993848      -0.05958979       0.00000000
