10
Lattice="16.28999089631971 0.0 0.0 0.0 16.28999089631971 0.0 0.0 0.0 34.51877397758722" Properties=species:S:1:pos:R:3:initial_magmoms:R:1 pbc="T T T"
Si       0.80029675      -1.93499136       1.12286183       0.00000000
Si      -1.41994296       1.11412197       1.60533100       0.00000000
Si       2.04305759       1.10011257      -0.69434553       0.00000000
Si      -0.45060651      -0.17485686      -2.49633009       0.00000000
Si      -1.35973512      -2.04802767      -1.37567747       0.00000000
Si       2.69224667      -0.73379934       2.19045906       0.00000000
Si       0.63087097      -3.41433513      -1.09624784       0.00000000
Si       2.93700392       1.62968418       1.58054651       0.00000000
Si       3.58852247      -0.80736498      -1.16846115       0.00000000
Si      -0.19068260       2.45612475       3.29243702       0.00000000
