10
Lattice="16.28999089631971 0.0 0.0 0.0 16.28999089631971 0.0 0.0 0.0 34.51877397758722" Properties=species:S:1:pos:R:3:initial_magmoms:R:1 pbc="T T T"
Si       2.15953272       0.64089747       0.81823348       0.00000000
Si      -0.24475725      -2.36348352       0.60991256       0.00000000
Si      -1.19180898       1.91003575       0.98848016       0.00000000
Si      -0.89394633      -0.52957161      -2.27489203       0.00000000
Si       1.77748335       1.22512971      -1.40132493       0.00000000
Si      -3.12768652       0.82644057       1.71189051       0.00000000
Si       1.59816303      -3.26256120      -0.66255372       0.00000000
Si      -2.93700392      -1.62968418      -1.58054651       0.00000000
Si       0.65151855      -2.43704916      -2.74900766       0.00000000
Si       0.47055294       2.70157662      -2.65939687       0.00000000
