10
Lattice="16.28999089631971 0.0 0.0 0.0 16.28999089631971 0.0 0.0 0.0 34.51007289658418" Properties=species:S:1:pos:R:3:initial_magmoms:R:1 pbc="T T T"
Si       0.63869832       1.92963195       1.23245892       0.00000000
Si      -0.39581442      -1.56111957       1.78600080       0.00000000
Si       0.95579946      -0.13952385      -2.21202789       0.00000000
Si      -2.07120834       0.62951076      -1.07799175       0.00000000
Si       2.79753057      -0.58411053       1.17134155       0.00000000
Si      -0.89119332       1.05971337      -3.07616060       0.00000000
Si       0.40387797       1.21187826       3.47368235       0.00000000
Si       2.67801084      -2.69246007      -0.02308725       0.00000000
Si      -0.89669934       3.62961630       0.72257231       0.00000000
Si      -2.95493269       2.60152182      -0.05563027       0.00000000
