10
Lattice="16.28999089631971 0.0 0.0 0.0 16.28999089631971 0.0 0.0 0.0 34.51007289658418" Properties=species:S:1:pos:R:3:initial_magmoms:R:1 pbc="T T T"
Si      -1.34718300      -1.35060227       1.38992157       0.00000000
Si       1.37564163       1.35721764       1.39092236       0.00000000
Si       1.16424630      -1.59949229      -1.38278143       0.00000000
Si      -1.51567047       1.36502055      -1.49633344       0.00000000
Si      -2.70842427      -2.71287863      -0.00197398       0.00000000
Si      -2.70915732       2.71357191       0.02546155       0.00000000
Si       2.71669959       2.71606428       0.03822338       0.00000000
Si      -2.70013266       0.00048870       2.75355335       0.00000000
Si       0.01638774      -2.71604893       2.75193138       0.00000000
Si       0.01490535       2.71648782       2.75151726       0.00000000
