10
Lattice="16.28999089631971 0.0 0.0 0.0 16.28999089631971 0.0 0.0 0.0 34.51007289658418" Properties=species:S:1:pos:R:3:initial_magmoms:R:1 pbc="T T T"
Si       1.56706542      -1.13936332       1.39644398       0.00000000
Si      -1.16424630       1.59949229       1.38278143       0.00000000
Si       1.86722496       1.21956062      -1.18390840       0.00000000
Si      -2.30439969      -2.32813163      -0.01704453       0.00000000
Si      -1.84687875      -0.21892945      -2.78402373       0.00000000
Si       0.47174211       0.77370332      -3.33138831       0.00000000
Si       0.21352932      -2.47752722       2.77901835       0.00000000
Si      -2.51142930       0.24889002       2.77270300       0.00000000
Si       3.08076480      -2.48348936      -0.09851941       0.00000000
Si      -2.67991677       2.96451284      -0.11355201       0.00000000
