10
Lattice="16.28999089631971 0.0 0.0 0.0 16.28999089631971 0.0 0.0 0.0 34.51007289658418" Properties=species:S:1:pos:R:3:initial_magmoms:R:1 pbc="T T T"
Si       1.35492075      -1.35497844       1.35817919       0.00000000
Si      -1.35780408      -1.35632188      -1.35600505       0.00000000
Si       1.35707103       1.35877985      -1.35641917       0.00000000
Si      -1.35754344       1.35721601       1.36169922       0.00000000
Si       0.00021177      -2.71415088      -2.71321796       0.00000000
Si       2.71441899      -2.71323864       0.00165648       0.00000000
Si       2.71467963       0.00111098      -2.71335600       0.00000000
Si      -2.71569613       0.00204277      -2.71321796       0.00000000
Si      -2.71588020      -2.71338525       0.00165648       0.00000000
Si      -0.00089595       2.71612781      -2.71339051       0.00000000
