10
Lattice="16.28999089631971 0.0 0.0 0.0 16.28999089631971 0.0 0.0 0.0 34.51007289658418" Properties=species:S:1:pos:R:3:initial_magmoms:R:1 pbc="T T T"
Si      -1.35026181      -1.34508389      -1.36739338       0.00000000
Si      -1.17173970       1.45887213       1.45456588       0.00000000
Si       1.37037996       1.36658928      -1.36815260       0.00000000
Si       1.33760448      -1.38375635       1.39800383       0.00000000
Si       2.16215541       0.46894512       2.61769402       0.00000000
Si       0.65337561       2.33089212       2.71684152       0.00000000
Si      -2.69164557      -2.69953223       0.02036095       0.00000000
Si       0.00923643      -2.70334409      -2.72391609       0.00000000
Si      -2.70518256       0.00989455      -2.72557257       0.00000000
Si      -2.69956251       2.73196821       0.02132724       0.00000000
