10
Lattice="16.28999089631971 0.0 0.0 0.0 16.28999089631971 0.0 0.0 0.0 34.51007289658418" Properties=species:S:1:pos:R:3:initial_magmoms:R:1 pbc="T T T"
Si       1.34105796       1.35884664      -1.35269899       0.00000000
Si       1.35410625      -1.35739683       1.36104353       0.00000000
Si      -1.36073628       1.35927018       1.36059489       0.00000000
Si      -1.37564163      -1.35721764      -1.39092236       0.00000000
Si      -0.02893104       2.70216891      -2.70041471       0.00000000
Si       2.71280628      -2.71303434      -0.00158746       0.00000000
Si       2.71280628       2.71624347       0.00138040       0.00000000
Si       2.71202436       0.00107514       2.71808388       0.00000000
Si      -2.72282463      -2.70781991      -0.00100079       0.00000000
Si      -0.00304623      -2.71400685       2.71842898       0.00000000
