10
Lattice="16.28999089631971 0.0 0.0 0.0 16.28999089631971 0.0 0.0 0.0 34.51007289658418" Properties=species:S:1:pos:R:3:initial_magmoms:R:1 pbc="T T T"
Si      -1.37264427      -1.33648047       1.35607407       0.00000000
Si       1.35334062      -1.35571896      -1.36142314       0.00000000
Si      -1.36321236       1.36171368      -1.36014626       0.00000000
Si       1.36946772       1.34677575       1.38451039       0.00000000
Si      -0.08180838       2.61358389       2.75114455       0.00000000
Si       2.70844056      -2.70894555      -0.00469337       0.00000000
Si      -0.04416219      -2.78008398       2.63681261       0.00000000
Si       2.71093293       0.00316026      -2.71739368       0.00000000
Si      -0.00390960      -2.71153566      -2.71770427       0.00000000
Si       2.71523349       2.71847520       0.00182903       0.00000000
