10
Lattice="16.28999089631971 0.0 0.0 0.0 16.28999089631971 0.0 0.0 0.0 34.51007289658418" Properties=species:S:1:pos:R:3:initial_magmoms:R:1 pbc="T T T"
Si      -1.05740019       1.91322792      -0.88276816       0.00000000
Si       1.86919605      -0.52603668      -1.38171507       0.00000000
Si       0.85273263       0.95112423       2.04396374       0.00000000
Si      -1.80403605      -1.67829354      -0.03930699       0.00000000
Si       2.71124244      -0.54727884       1.98284637       0.00000000
Si      -0.95625558       1.41807708      -3.15832913       0.00000000
Si      -3.33675889       1.74669525      -0.32498154       0.00000000
Si       3.87340362      -0.38851650      -0.12433986       0.00000000
Si      -3.79636007      -0.52965306      -0.70762944       0.00000000
Si       2.69522937       1.16020638      -2.74510528       0.00000000
