10
Lattice="16.28999089631971 0.0 0.0 0.0 16.28999089631971 0.0 0.0 0.0 34.51007289658418" Properties=species:S:1:pos:R:3:initial_magmoms:R:1 pbc="T T T"
Si       1.34846991       1.34412048       1.35383782       0.00000000
Si       1.32351363      -1.38702834      -1.35258165       0.00000000
Si      -1.39582494       1.31611797      -1.36523305       0.00000000
Si      -1.36601424      -1.37386602       1.34879934       0.00000000
Si      -0.52717698      -2.20214736      -2.60250510       0.00000000
Si      -2.25725643      -0.40586535      -2.68730906       0.00000000
Si       2.68623729       2.69578323      -0.00941090       0.00000000
Si      -0.00663003       2.69811270       2.70866953       0.00000000
Si      -2.72824920       2.68384266      -0.00641198       0.00000000
Si       2.70598077      -0.01454697       2.70853149       0.00000000
