10
Lattice="16.28999089631971 0.0 0.0 0.0 16.28999089631971 0.0 0.0 0.0 34.51007289658418" Properties=species:S:1:pos:R:3:initial_magmoms:R:1 pbc="T T T"
Si       1.35509994      -1.35399222      -1.35483171       0.00000000
Si      -1.35770634       1.35399222      -1.36031881       0.00000000
Si      -1.35863487      -1.35641943       1.35707486       0.00000000
Si       1.35687555       1.35860229       1.35776507       0.00000000
Si       0.00663003      -2.69811270      -2.70866953       0.00000000
Si       2.69286732      -0.00232947      -2.71808043       0.00000000
Si       2.71261080      -2.71265967      -0.00013804       0.00000000
Si       2.71371852       0.00123804       2.71439130       0.00000000
Si      -0.00177561      -2.71391400       2.71449483       0.00000000
Si       2.71072116       2.71850778       0.00027608       0.00000000
