10
Lattice="16.28999089631971 0.0 0.0 0.0 16.28999089631971 0.0 0.0 0.0 34.51007289658418" Properties=species:S:1:pos:R:3:initial_magmoms:R:1 pbc="T T T"
Si      -1.34001540      -0.20668752      -1.92731963       0.00000000
Si       1.95854670      -0.29880747      -1.27832283       0.00000000
Si      -0.85488291      -1.73213199       1.37891975       0.00000000
Si      -0.43186419       2.10663909       1.11788542       0.00000000
Si      -3.10682880      -1.15711128       1.36100902       0.00000000
Si      -3.34329444      -1.06683210      -0.95730996       0.00000000
Si      -0.72024606       1.74418659      -3.14224742       0.00000000
Si       1.73727963       1.56656043      -2.83000011       0.00000000
Si      -0.45001125      -1.91602980      -3.29902677       0.00000000
Si      -1.74158019       1.72289556       3.04982940       0.00000000
