10
Lattice="16.28999089631971 0.0 0.0 0.0 16.28999089631971 0.0 0.0 0.0 34.51007289658418" Properties=species:S:1:pos:R:3:initial_magmoms:R:1 pbc="T T T"
Si       0.17316270       1.98027756       1.22303767       0.00000000
Si       0.46602432      -1.51615917       1.73320036       0.00000000
Si      -2.07985833      -0.82608219      -0.75621965       0.00000000
Si       1.30971600       0.38374353      -1.93194398       0.00000000
Si      -1.36524861      -2.88000684      -1.68882038       0.00000000
Si      -1.67383008       3.17951478       0.35890496       0.00000000
Si      -0.04797405       2.07713790      -2.97111188       0.00000000
Si      -1.74040731      -2.01258063       2.51116137       0.00000000
Si       3.21049836       1.50842142      -1.05811394       0.00000000
Si       1.47665592      -3.36530223       0.59854304       0.00000000
