10
Lattice="16.28999089631971 0.0 0.0 0.0 16.28999089631971 0.0 0.0 0.0 34.51007289658418" Properties=species:S:1:pos:R:3:initial_magmoms:R:1 pbc="T T T"
Si       1.61564220      -1.35457866       0.97615247       0.00000000
Si      -1.05536394       1.55214378       1.37729778       0.00000000
Si       0.41575338       1.17579591      -2.00734853       0.00000000
Si      -2.01658797      -1.25203311       0.23266704       0.00000000
Si      -1.22862438      -0.21799278       2.87914248       0.00000000
Si       0.53527311       3.28414545      -0.81291973       0.00000000
Si       0.32930235      -2.07936963       2.74541587       0.00000000
Si      -2.65807188       2.30713641      -0.19826048       0.00000000
Si       2.36838681      -2.59639794      -0.89798711       0.00000000
Si      -3.59635959       0.22977045      -0.64468303       0.00000000
