10
Lattice="16.28999089631971 0.0 0.0 0.0 16.28999089631971 0.0 0.0 0.0 34.51007289658418" Properties=species:S:1:pos:R:3:initial_magmoms:R:1 pbc="T T T"
Si       1.35677781      -1.35472527       1.35824821       0.00000000
Si      -1.35767376      -1.35571896      -1.35724742       0.00000000
Si       1.35674523       1.35887922      -1.35704035       0.00000000
Si      -1.35725022       1.35801585       1.36180275       0.00000000
Si      -2.71434406      -2.71194291       0.00020706       0.00000000
Si       2.71331127      -2.71300176       0.00065569       0.00000000
Si      -0.00013032      -2.71347417      -2.71463287       0.00000000
Si       2.71538010       0.00154755      -2.71394267       0.00000000
Si      -2.71508525       0.00102627      -2.71428777       0.00000000
Si       0.00006516       2.71635750      -2.71397718       0.00000000
