10
Lattice="16.28999089631971 0.0 0.0 0.0 16.28999089631971 0.0 0.0 0.0 34.51007289658418" Properties=species:S:1:pos:R:3:initial_magmoms:R:1 pbc="T T T"
Si       1.35827649       1.35675433      -1.35828272       0.00000000
Si      -1.35752715      -1.35839052      -1.35793762       0.00000000
Si      -1.35949824       1.35826020       1.35652270       0.00000000
Si       1.35850455      -1.35920502       1.36176824       0.00000000
Si      -0.00923643       2.70334409       2.72391609       0.00000000
Si      -2.71441899       2.71323864      -0.00165648       0.00000000
Si       2.71454931       2.71344063      -0.00131138       0.00000000
Si      -2.71420722      -0.00091224      -2.71487444       0.00000000
Si       0.00026064       2.71434961      -2.71501248       0.00000000
Si       2.71515204      -0.00114030      -2.71497797       0.00000000
