10
Lattice="16.28999089631971 0.0 0.0 0.0 16.28999089631971 0.0 0.0 0.0 34.51007289658418" Properties=species:S:1:pos:R:3:initial_magmoms:R:1 pbc="T T T"
Si       0.62273412       1.85614776      -1.36842869       0.00000000
Si       1.50257331      -1.89651438      -0.15653778       0.00000000
Si      -1.97890920      -0.80433504      -1.25613285       0.00000000
Si       1.09418301       0.71298072       2.56230532       0.00000000
Si       2.02551489       0.54413487      -2.75632106       0.00000000
Si      -0.71610840      -2.18812167      -2.76146307       0.00000000
Si       3.31926669      -0.91222371      -1.30182421       0.00000000
Si       1.13525010       3.08006500       2.09037981       0.00000000
Si       0.57480894      -3.64184127      -1.37929936       0.00000000
Si       1.44728505       3.70884923      -0.14873850       0.00000000
