10
Lattice="16.28999089631971 0.0 0.0 0.0 16.28999089631971 0.0 0.0 0.0 34.51007289658418" Properties=species:S:1:pos:R:3:initial_magmoms:R:1 pbc="T T T"
Si      -0.17316270      -1.98027756      -1.22303767       0.00000000
Si      -1.84699278       1.19923722      -0.86413271       0.00000000
Si       2.12678982       0.95291613      -0.53262876       0.00000000
Si      -0.95579946       0.13952385       2.21202789       0.00000000
Si      -3.02700780       0.76903461       1.13403614       0.00000000
Si      -0.88878240       3.31811403      -0.62528836       0.00000000
Si       1.17250533       2.91243113      -1.54491330       0.00000000
Si       0.29286162      -3.49643673       0.51016269       0.00000000
Si       1.13655330      -1.59653403      -3.15498165       0.00000000
Si       1.72221138      -2.55293622       2.18894064       0.00000000
