10
Lattice="16.28999089631971 0.0 0.0 0.0 16.28999089631971 0.0 0.0 0.0 34.51007289658418" Properties=species:S:1:pos:R:3:initial_magmoms:R:1 pbc="T T T"
Si       1.03773816      -0.74541411      -1.96231286       0.00000000
Si       1.60759494      -1.35799956       1.05870061       0.00000000
Si      -2.18997873      -0.90288954      -0.12803244       0.00000000
Si      -0.70299495       2.26509192       0.30703629       0.00000000
Si      -0.86589495      -0.34564122      -3.32290776       0.00000000
Si      -2.81375541       0.32184153      -2.05607678       0.00000000
Si       2.40920955       1.12860378      -2.34216545       0.00000000
Si      -2.57608431       2.49259806      -1.12333801       0.00000000
Si       0.85317246      -3.62466251       0.73416770       0.00000000
Si       2.39008509      -0.08342109       2.97666800       0.00000000
