10
Lattice="16.28999089631971 0.0 0.0 0.0 16.28999089631971 0.0 0.0 0.0 34.51007289658418" Properties=species:S:1:pos:R:3:initial_magmoms:R:1 pbc="T T T"
Si      -2.14757586       0.68160618      -0.41129128       0.00000000
Si       0.53695098       1.84669956       1.29447356       0.00000000
Si      -0.25974405      -1.95113475       1.29088451       0.00000000
Si       1.42216587      -0.78856632      -1.75804763       0.00000000
Si      -3.02674716      -1.47861072      -0.74983528       0.00000000
Si       1.97555346      -2.31000345       1.81447163       0.00000000
Si      -1.47538530      -3.26359399      -0.24729932       0.00000000
Si       2.83589352      -2.22560496      -0.37132859       0.00000000
Si       2.70642060       1.48550139       2.00306928       0.00000000
Si      -1.31810535      -1.62940725       3.35717628       0.00000000
