10
Lattice="16.28999089631971 0.0 0.0 0.0 16.28999089631971 0.0 0.0 0.0 34.51007289658418" Properties=species:S:1:pos:R:3:initial_magmoms:R:1 pbc="T T T"
Si      -1.36625859       1.21601592       1.47101339       0.00000000
Si      -1.05148692      -1.87998003      -1.13389982       0.00000000
Si       1.35558864      -1.46970009       1.45802034       0.00000000
Si       1.46155509       1.43508384      -1.51943246       0.00000000
Si      -2.73624759       2.55933819       0.12329766       0.00000000
Si      -1.83902697       0.03847698      -3.34453320       0.00000000
Si       0.00548973       2.57341275       2.82509277       0.00000000
Si       0.86837103      -3.55690358      -1.19685313       0.00000000
Si       2.76998418       2.76021018      -0.04141901       0.00000000
Si      -2.70731655      -0.14283072       2.82371237       0.00000000
