10
Lattice="16.28999089631971 0.0 0.0 0.0 16.28999089631971 0.0 0.0 0.0 34.51007289658418" Properties=species:S:1:pos:R:3:initial_magmoms:R:1 pbc="T T T"
Si      -1.35736425       1.35764118       1.35707486       0.00000000
Si      -1.35847197      -1.35625653      -1.35745448       0.00000000
Si       1.35786924      -1.35809730       1.35779958       0.00000000
Si       1.36006839       1.35731538      -1.35797213       0.00000000
Si      -2.71598283       0.00241092      -2.71214814       0.00000000
Si       2.71565703      -0.00030951      -2.71349404       0.00000000
Si       2.71456560      -0.00065160       2.71459836       0.00000000
Si      -2.71420722       2.71500543       0.00044863       0.00000000
Si       2.71471221      -2.71487511      -0.00010353       0.00000000
Si      -2.71480995      -2.71482624      -0.00017255       0.00000000
