10
Lattice="16.28999089631971 0.0 0.0 0.0 16.28999089631971 0.0 0.0 0.0 34.51007289658418" Properties=species:S:1:pos:R:3:initial_magmoms:R:1 pbc="T T T"
Si      -1.19348685       1.34855136       1.52179499       0.00000000
Si       1.01169045       1.87924698      -1.06308235       0.00000000
Si      -1.88436204      -0.91572606      -1.26860276       0.00000000
Si       1.51567047      -1.36502055       1.49633344       0.00000000
Si      -2.55387941       2.62689282       0.03134552       0.00000000
Si      -2.53841206      -0.00838935       2.89036171       0.00000000
Si      -0.71838900       3.67552899      -1.14788632       0.00000000
Si      -3.57411397       0.89715546      -1.35329053       0.00000000
Si       2.86238106       2.69436600       0.18684109       0.00000000
Si       0.17285319       2.70752832       2.88822209       0.00000000
