10
Lattice="16.28999089631971 0.0 0.0 0.0 16.28999089631971 0.0 0.0 0.0 34.51007289658418" Properties=species:S:1:pos:R:3:initial_magmoms:R:1 pbc="T T T"
Si      -1.35684297       1.35736425      -1.35662623       0.00000000
Si       1.35736425      -1.35764118      -1.35707486       0.00000000
Si       1.35733167       1.35752715       1.35748899       0.00000000
Si      -1.35891180      -1.35718506       1.35797213       0.00000000
Si      -2.71371852      -0.00123804      -2.71439130       0.00000000
Si      -0.00110772      -2.71389771      -2.71452934       0.00000000
Si       2.71523349       2.71485882       0.00017255       0.00000000
Si      -2.71547784       2.71469592       0.00027608       0.00000000
Si      -2.71549413      -2.71515204       0.00010353       0.00000000
Si       2.71523349      -2.71573848       0.00072471       0.00000000
