10
Lattice="16.28999089631971 0.0 0.0 0.0 16.28999089631971 0.0 0.0 0.0 34.51007289658418" Properties=species:S:1:pos:R:3:initial_magmoms:R:1 pbc="T T T"
Si       1.35558864      -1.35762489      -1.35552191       0.00000000
Si       1.35527913       1.35783666       1.35804115       0.00000000
Si      -1.36006839      -1.35731538       1.35797213       0.00000000
Si      -1.36277253       1.35954711      -1.36038783       0.00000000
Si       2.71098180      -2.71485882       0.00051765       0.00000000
Si       2.71272483       0.00043983       2.71563366       0.00000000
Si       2.71231758       2.71678104       0.00158746       0.00000000
Si      -0.00219915       2.71518462       2.71521954       0.00000000
Si      -0.00219915      -2.71541268       2.71577170       0.00000000
Si      -2.71854036      -2.71357191       0.00051765       0.00000000
