10
Lattice="16.28999089631971 0.0 0.0 0.0 16.28999089631971 0.0 0.0 0.0 34.51007289658418" Properties=species:S:1:pos:R:3:initial_magmoms:R:1 pbc="T T T"
Si       1.75130532       1.49683923       0.29616561       0.00000000
Si       0.80599662      -2.06619102      -0.92083279       0.00000000
Si      -1.24594065       1.59565437      -1.30527522       0.00000000
Si      -0.41275602      -0.78180597       2.24315599       0.00000000
Si       2.93580009       0.93032190      -1.65817542       0.00000000
Si      -0.67087107      -3.59600121       0.15657229       0.00000000
Si      -2.15648649       3.02042664       0.44324762       0.00000000
Si       2.79222003       0.93203235       2.30472200       0.00000000
Si      -3.14672301       0.47097648      -2.17910526       0.00000000
Si       0.07933230      -3.08693871       2.32939671       0.00000000
