10
Lattice="16.28999089631971 0.0 0.0 0.0 16.28999089631971 0.0 0.0 0.0 34.51007289658418" Properties=species:S:1:pos:R:3:initial_magmoms:R:1 pbc="T T T"
Si       2.21224716      -0.72016461      -0.17089398       0.00000000
Si      -0.75020337      -0.50906250      -2.17282442       0.00000000
Si      -0.49208832       2.30513274      -0.08624072       0.00000000
Si      -0.68776380      -1.17068085       1.94478173       0.00000000
Si      -1.70603541      -2.81250108       0.52979894       0.00000000
Si       0.72666432       1.02074769      -3.25022950       0.00000000
Si       2.72236851      -0.08298126      -2.40987425       0.00000000
Si      -3.05911539      -0.19113057      -1.97801495       0.00000000
Si       3.36745251       0.51078924       1.51447540       0.00000000
Si       1.02012867       3.31405389       1.37678013       0.00000000
