10
Lattice="16.28999089631971 0.0 0.0 0.0 16.28999089631971 0.0 0.0 0.0 34.51007289658418" Properties=species:S:1:pos:R:3:initial_magmoms:R:1 pbc="T T T"
Si       1.51221699       1.00892115       1.46302085       0.00000000
Si      -2.14830891       0.29638026       0.92166103       0.00000000
Si       0.49208832      -2.30513274       0.08624072       0.00000000
Si       0.41275602       0.78180597      -2.24315599       0.00000000
Si       0.25386336       2.88886860       1.90761437       0.00000000
Si      -0.25811505      -2.81419524      -2.08658370       0.00000000
Si       1.21875264      -1.28438505      -3.16398878       0.00000000
Si       3.20497605       1.71383832       0.06156600       0.00000000
Si       2.16406134       2.27864520      -1.94699038       0.00000000
Si      -3.57765867      -0.64712025      -0.75711691       0.00000000
