10
Lattice="16.28999089631971 0.0 0.0 0.0 16.28999089631971 0.0 0.0 0.0 34.51007289658418" Properties=species:S:1:pos:R:3:initial_magmoms:R:1 pbc="T T T"
Si      -1.47882249       1.07504226       1.50550764       0.00000000
Si       1.41934770      -1.70176743       0.97953446       0.00000000
Si      -1.78950537      -0.96661602      -1.54791567       0.00000000
Si       1.30971600       1.51788591      -2.01031640       0.00000000
Si      -0.64102779       0.53121690      -2.99261166       0.00000000
Si      -0.78149646      -3.07853307      -1.18231576       0.00000000
Si       0.18438651       2.05884423       2.79816597       0.00000000
Si       0.93713112       3.36525336      -0.62501228       0.00000000
Si       1.66729779      -2.93399190      -1.14231856       0.00000000
Si       2.05620525       2.83835331       1.38181860       0.00000000
