10
Lattice="16.28999089631971 0.0 0.0 0.0 16.28999089631971 0.0 0.0 0.0 34.51007289658418" Properties=species:S:1:pos:R:3:initial_magmoms:R:1 pbc="T T T"
Si       1.35638685       1.35809730       1.35731644       0.00000000
Si       1.35747828      -1.35734796      -1.35717840       0.00000000
Si      -1.35803214       1.35708732      -1.35693682       0.00000000
Si      -1.35790182      -1.35733167       1.35731644       0.00000000
Si       0.00079821       2.71342212      -2.71380463       0.00000000
Si       2.71451673       0.00159642      -2.71363208       0.00000000
Si       2.71492398      -2.71474479       0.00041412       0.00000000
Si       2.71505430       2.71480286       0.00041412       0.00000000
Si      -2.71490769       2.71498195      -0.00024157       0.00000000
Si      -2.71523349      -2.71485882      -0.00017255       0.00000000
