10
Lattice="16.28999089631971 0.0 0.0 0.0 16.28999089631971 0.0 0.0 0.0 34.51007289658418" Properties=species:S:1:pos:R:3:initial_magmoms:R:1 pbc="T T T"
Si      -0.92776437      -1.74532689      -1.22276159       0.00000000
Si       1.81669338       0.98429067      -1.14528643       0.00000000
Si       0.72583353      -1.11636999       1.99350999       0.00000000
Si      -1.50257331       1.89651438       0.15653778       0.00000000
Si      -2.21868171      -0.29160729      -2.60492529       0.00000000
Si       0.52294158       2.44064925      -2.59978328       0.00000000
Si      -2.21705271      -2.98326915       0.37978356       0.00000000
Si      -0.40839030       2.60949510       2.71884310       0.00000000
Si      -3.48148251       1.09217934      -1.09959507       0.00000000
Si       2.96810316      -0.28665513       2.38978937       0.00000000
