10
Lattice="16.28999089631971 0.0 0.0 0.0 16.28999089631971 0.0 0.0 0.0 34.51007289658418" Properties=species:S:1:pos:R:3:initial_magmoms:R:1 pbc="T T T"
Si       2.27719539      -0.70643214      -0.13407171       0.00000000
Si      -0.39910500       1.06248267       2.19187399       0.00000000
Si      -1.19351943      -2.00376774      -0.86937824       0.00000000
Si      -0.89840979       1.31515686      -2.01097209       0.00000000
Si      -2.73070899       2.04610545      -0.72146799       0.00000000
Si       0.23581404      -2.41070823      -2.73630521       0.00000000
Si      -1.96055037       2.72658829       1.44417834       0.00000000
Si       2.47808367      -1.58099337      -2.34002582       0.00000000
Si       2.51162478      -2.31376644       1.62894537       0.00000000
Si      -0.97225236      -3.86913564       0.68229903       0.00000000
