10
Lattice="16.28999089631971 0.0 0.0 0.0 16.28999089631971 0.0 0.0 0.0 34.51007289658418" Properties=species:S:1:pos:R:3:initial_magmoms:R:1 pbc="T T T"
Si      -1.56333501      -0.82451509       1.46297316       0.00000000
Si      -1.09473687       1.89286542      -1.10262930       0.00000000
Si       1.15839819       1.84886613       1.26218654       0.00000000
Si       1.76453280      -1.74431365      -0.44459087       0.00000000
Si      -1.82850363      -1.11048604      -1.71835837       0.00000000
Si      -0.19688094      -2.19196709       2.73462519       0.00000000
Si       1.09983564       2.90271510      -1.89263433       0.00000000
Si      -3.40301358      -1.50780077       0.06120254       0.00000000
Si      -1.91617641       0.76787802      -3.11460219       0.00000000
Si       2.50962111       0.54729513       2.72005158       0.00000000
