10
Lattice="16.28999089631971 0.0 0.0 0.0 16.28999089631971 0.0 0.0 0.0 34.51007289658418" Properties=species:S:1:pos:R:3:initial_magmoms:R:1 pbc="T T T"
Si      -1.35752715      -1.35669473       1.35714389       0.00000000
Si       1.36093176      -1.35294640      -1.35814468       0.00000000
Si       1.35803214       1.35733167       1.35735095       0.00000000
Si      -1.35886293       1.35650088      -1.35759252       0.00000000
Si       2.70389565      -0.00213399      -2.72258745       0.00000000
Si      -2.71352304       2.71467963      -0.00055216       0.00000000
Si      -2.71515204       0.00013032       2.71439130       0.00000000
Si       2.71546039       2.71412577      -0.00034510       0.00000000
Si       0.00050499      -2.71493825       2.71494346       0.00000000
Si      -2.71375110      -2.71631899       0.00072471       0.00000000
