10
Lattice="16.28999089631971 0.0 0.0 0.0 16.28999089631971 0.0 0.0 0.0 34.51007289658418" Properties=species:S:1:pos:R:3:initial_magmoms:R:1 pbc="T T T"
Si       1.35868374       1.34431596       1.36949850       0.00000000
Si      -1.35949824       1.35511623      -1.36238942       0.00000000
Si       1.35739683      -1.36113376      -1.36235491       0.00000000
Si      -1.36028016      -1.37720710       1.38299194       0.00000000
Si      -0.05887206       2.73500955       2.66649129       0.00000000
Si       2.70899517      -2.71496375      -0.00469337       0.00000000
Si       2.71443802       2.71116099       0.00037961       0.00000000
Si      -0.00050499       2.71213839      -2.71887761       0.00000000
Si      -2.71780731       2.71437012      -0.00593574       0.00000000
Si      -2.71560816      -2.71724435      -0.00352003       0.00000000
