10
Lattice="16.28999089631971 0.0 0.0 0.0 16.28999089631971 0.0 0.0 0.0 34.51007289658418" Properties=species:S:1:pos:R:3:initial_magmoms:R:1 pbc="T T T"
Si      -1.35532800      -1.34003725      -1.38651197       0.00000000
Si       1.36028016       1.37720710      -1.38299194       0.00000000
Si      -1.40149386       1.33201864       1.42323071       0.00000000
Si       1.23057918      -1.49246278       1.54115170       0.00000000
Si      -2.69707014      -2.68990810      -0.01011146       0.00000000
Si       2.70471015      -2.68357129      -0.01670288       0.00000000
Si      -2.70490563       2.72258191      -0.03999720       0.00000000
Si       2.71896390       2.72152306      -0.01349345       0.00000000
Si       0.00135207      -2.69761327      -2.74486371       0.00000000
Si      -2.71366965       0.01595768      -2.74545038       0.00000000
