10
Lattice="16.28999089631971 0.0 0.0 0.0 16.28999089631971 0.0 0.0 0.0 34.51007289658418" Properties=species:S:1:pos:R:3:initial_magmoms:R:1 pbc="T T T"
Si       0.59005638      -2.30604498       0.18859765       0.00000000
Si       1.76311557       1.60899588      -0.72271035       0.00000000
Si      -0.83544894       0.41728464       2.33305478       0.00000000
Si      -1.56597399       0.34785666      -2.18079626       0.00000000
Si       1.33356456      -2.72284255      -2.06259919       0.00000000
Si      -2.20692033      -1.45673325       2.71290737       0.00000000
Si      -1.75387914       2.61592965       2.14683832       0.00000000
Si       0.01130526       1.39945761      -3.66473022       0.00000000
Si       1.10692179       3.07335285      -2.42564536       0.00000000
Si       2.04648012       3.43547955       0.82282413       0.00000000
