10
Lattice="16.28999089631971 0.0 0.0 0.0 16.28999089631971 0.0 0.0 0.0 34.51007289658418" Properties=species:S:1:pos:R:3:initial_magmoms:R:1 pbc="T T T"
Si       2.00523384      -0.01570356       1.16091950       0.00000000
Si      -0.47703636      -1.73742624      -1.49190580       0.00000000
Si      -1.82834073      -0.54152847       1.47157935       0.00000000
Si       0.25383078       2.05807860      -1.30330814       0.00000000
Si       1.18767132       1.59330861       2.69354720       0.00000000
Si      -2.71233387      -1.37855754      -2.01549291       0.00000000
Si      -1.00690119       0.58345893       3.48355224       0.00000000
Si      -1.91563884       2.41927677      -2.01190386       0.00000000
Si      -0.08790084      -3.79271015      -0.37847218       0.00000000
Si       3.75981249       0.79579908      -0.19077179       0.00000000
