10
Lattice="16.28999089631971 0.0 0.0 0.0 16.28999089631971 0.0 0.0 0.0 34.51007289658418" Properties=species:S:1:pos:R:3:initial_magmoms:R:1 pbc="T T T"
Si       0.65619378      -1.46435697       1.70293501       0.00000000
Si      -1.09561653      -1.67389524      -1.23908486       0.00000000
Si       1.76762385       1.09724553      -1.18007260       0.00000000
Si      -1.70173485       1.79836713       0.41394856       0.00000000
Si       0.93955833       0.36212670       3.24846949       0.00000000
Si       0.32894397       2.39787171      -2.53538745       0.00000000
Si      -2.41657263      -0.31578165      -2.55695626       0.00000000
Si       2.58443198      -2.54785374       0.28249961       0.00000000
Si      -2.67289578      -2.72549619       0.24484910       0.00000000
Si      -0.86390757       3.70019205      -0.88559799       0.00000000
