10
Lattice="16.28999089631971 0.0 0.0 0.0 16.28999089631971 0.0 0.0 0.0 34.51007289658418" Properties=species:S:1:pos:R:3:initial_magmoms:R:1 pbc="T T T"
Si       1.35785963      -1.35791811       1.36100902       0.00000000
Si      -1.35677781       1.35988920       1.36190628       0.00000000
Si      -1.33986879      -1.37909511      -1.36360417       0.00000000
Si       1.37406150       1.36818081      -1.36367665       0.00000000
Si      -0.10445148       2.60869689      -2.72737745       0.00000000
Si      -2.69835705      -0.01865205      -2.65434029       0.00000000
Si      -2.71350675      -2.71451673       0.00479690       0.00000000
Si       2.71601119      -2.71213839       0.00127687       0.00000000
Si      -2.71495656       2.71572219       0.00741967       0.00000000
Si       2.71438871       2.71668330       0.00169099       0.00000000
