10
Lattice="16.28999089631971 0.0 0.0 0.0 16.28999089631971 0.0 0.0 0.0 34.51007289658418" Properties=species:S:1:pos:R:3:initial_magmoms:R:1 pbc="T T T"
Si       1.34474190       1.33722981      -1.37422638       0.00000000
Si       1.43867988      -1.30062618       1.35531485       0.00000000
Si      -1.36875096      -1.38049605      -1.37067184       0.00000000
Si      -1.19285154       1.30232034       1.64978947       0.00000000
Si      -0.32894397      -2.39787171       2.53538745       0.00000000
Si      -2.03067882      -0.59950458       2.94933601       0.00000000
Si       2.70992362       2.68112223      -0.00089726       0.00000000
Si      -2.72028339       2.67255369       0.02067155       0.00000000
Si      -0.00807984       2.69232975      -2.73178439       0.00000000
Si       2.70718690      -0.02068830      -2.73202596       0.00000000
