10
Lattice="16.28999089631971 0.0 0.0 0.0 16.28999089631971 0.0 0.0 0.0 34.51007289658418" Properties=species:S:1:pos:R:3:initial_magmoms:R:1 pbc="T T T"
Si      -0.26712342      -1.72616985       1.44821602       0.00000000
Si      -1.97037324       1.04420529      -0.64036927       0.00000000
Si       1.71053145       1.51826058       0.41557053       0.00000000
Si       0.07926714      -0.90386694      -2.15270504       0.00000000
Si      -2.17860831      -0.26521749      -2.61086102       0.00000000
Si       1.90057059      -2.54617587       1.52679550       0.00000000
Si      -1.09548621       2.96930862      -1.62238845       0.00000000
Si       0.59347728       3.52481391      -0.07640534       0.00000000
Si      -0.60582510      -0.75750129       3.48607147       0.00000000
Si       3.35682070       0.81435339      -1.10090645       0.00000000
