10
Lattice="16.28999089631971 0.0 0.0 0.0 16.28999089631971 0.0 0.0 0.0 34.51007289658418" Properties=species:S:1:pos:R:3:initial_magmoms:R:1 pbc="T T T"
Si       1.61869073       1.03513176       1.44202978       0.00000000
Si      -1.13184549      -1.72980252       1.27696801       0.00000000
Si       1.63983678      -0.35735373      -1.78762278       0.00000000
Si      -2.05195356       1.69518627       0.10363381       0.00000000
Si       0.14864625       2.30251005       2.81064482       0.00000000
Si      -0.98297118       3.31508016      -1.52872806       0.00000000
Si      -2.56528404      -0.44476587       2.81071729       0.00000000
Si       3.32575730       2.00184552       0.06294641       0.00000000
Si      -2.68881111      -2.84493447      -0.29865034       0.00000000
Si       2.84270993      -0.43774488       2.82021447       0.00000000
