10
Lattice="16.28999089631971 0.0 0.0 0.0 16.28999089631971 0.0 0.0 0.0 34.51007289658418" Properties=species:S:1:pos:R:3:initial_magmoms:R:1 pbc="T T T"
Si       1.35282174      -1.35509994       1.35755801       0.00000000
Si       1.35630942       1.35803214      -1.35752350       0.00000000
Si      -1.35799956      -1.35677781      -1.35717840       0.00000000
Si      -1.35775521       1.35948195       1.36114706       0.00000000
Si       0.00807984      -2.69232975       2.73178439       0.00000000
Si       2.71526674      -2.71301805      -0.00024157       0.00000000
Si       2.71452555      -0.00004887      -2.71473640       0.00000000
Si      -0.00078192      -2.71454931      -2.71483993       0.00000000
Si       2.71358398       2.71604799       0.00044863       0.00000000
Si      -2.71544526       0.00061902      -2.71477091       0.00000000
