10
Lattice="16.28999089631971 0.0 0.0 0.0 16.28999089631971 0.0 0.0 0.0 34.51007289658418" Properties=species:S:1:pos:R:3:initial_magmoms:R:1 pbc="T T T"
Si       1.55172156       0.99385290      -1.57814652       0.00000000
Si      -1.00752021      -1.82555514      -1.27356044       0.00000000
Si      -2.06369865       1.31285997       0.13407171       0.00000000
Si       1.56091710      -0.44737227       1.96103599       0.00000000
Si      -2.79254583      -0.43908066       2.06891454       0.00000000
Si       0.16407288       2.29456053      -2.92724955       0.00000000
Si       2.85160752       2.43462195      -0.16637315       0.00000000
Si      -2.53495206      -0.45532179      -2.90267836       0.00000000
Si       3.69492128       0.69941115       1.17751886       0.00000000
Si      -1.31005809       3.48566904      -1.36939497       0.00000000
