10
Lattice="16.28999089631971 0.0 0.0 0.0 16.28999089631971 0.0 0.0 0.0 34.51007289658418" Properties=species:S:1:pos:R:3:initial_magmoms:R:1 pbc="T T T"
Si       1.14706035       1.74163788      -1.07039953       0.00000000
Si       1.11705417      -2.00655333       0.49197587       0.00000000
Si      -1.68896349      -0.55550529      -1.54598311       0.00000000
Si      -1.30064247       0.62542197       1.91037517       0.00000000
Si      -0.59347728      -3.52481391       0.07640534       0.00000000
Si      -0.83241900       2.79963917      -2.08123464       0.00000000
Si      -2.56385052      -2.48060862      -0.56396393       0.00000000
Si      -3.61274733       0.45102123       1.21844782       0.00000000
Si      -0.70446105       2.84093432       2.50394876       0.00000000
Si       2.31320511       3.06218510       0.47275375       0.00000000
