10
Lattice="16.28999089631971 0.0 0.0 0.0 16.28999089631971 0.0 0.0 0.0 34.51007289658418" Properties=species:S:1:pos:R:3:initial_magmoms:R:1 pbc="T T T"
Si      -0.38913552       2.05528391      -1.11343361       0.00000000
Si      -0.00560376      -1.44725247      -1.89657114       0.00000000
Si       2.39464629       0.18018369       0.33326396       0.00000000
Si      -1.51071831      -0.54100719       1.91379167       0.00000000
Si       2.88354407      -1.85810256       1.40342192       0.00000000
Si       0.08790084       3.79271015       0.37847218       0.00000000
Si      -1.65276711       1.37281761       3.24629535       0.00000000
Si      -0.12497688      -0.07582995      -3.89280742       0.00000000
Si      -0.60740523      -2.46754404       2.96876519       0.00000000
Si      -2.62443303       2.41415261      -1.63702073       0.00000000
