10
Lattice="16.28999089631971 0.0 0.0 0.0 16.28999089631971 0.0 0.0 0.0 34.51007289658418" Properties=species:S:1:pos:R:3:initial_magmoms:R:1 pbc="T T T"
Si       1.30289279      -0.48355236      -1.93981228       0.00000000
Si       0.35961804       2.11354020       1.17682865       0.00000000
Si      -2.18805651      -1.09299384      -0.37446901       0.00000000
Si      -1.06898238      -1.61989389       1.63236187       0.00000000
Si      -0.34689555       0.22794597       2.97567208       0.00000000
Si       1.26763146       3.01518356      -1.11878268       0.00000000
Si       0.81399501       1.55473389      -3.00997024       0.00000000
Si      -3.09136959       0.83354301      -1.42944253       0.00000000
Si       0.31987044      -2.45164500      -2.84663397       0.00000000
Si       0.98297118      -3.31508016       1.52872806       0.00000000
