10
Lattice="16.28999089631971 0.0 0.0 0.0 16.28999089631971 0.0 0.0 0.0 34.51007289658418" Properties=species:S:1:pos:R:3:initial_magmoms:R:1 pbc="T T T"
Si       0.97018353       1.89211608       0.92732069       0.00000000
Si       1.23416298      -1.92487527       0.61597064       0.00000000
Si      -2.13269983      -0.32781996       1.01687438       0.00000000
Si      -0.10282248       0.47027601      -2.47823874       0.00000000
Si       0.03937293      -2.02191480      -2.69737783       0.00000000
Si      -0.42505497       3.44136024       0.01635778       0.00000000
Si       2.95011900       2.11131432      -0.24326164       0.00000000
Si      -2.35538576      -0.05478327      -2.82068238       0.00000000
Si       1.07631288      -3.37068119      -1.16806309       0.00000000
Si      -0.46833750       2.92607496      -2.26351695       0.00000000
