10
Lattice="16.28999089631971 0.0 0.0 0.0 16.28999089631971 0.0 0.0 0.0 34.51007289658418" Properties=species:S:1:pos:R:3:initial_magmoms:R:1 pbc="T T T"
Si      -1.35211398      -1.34006427       1.35538387       0.00000000
Si       1.33242426      -1.36772469      -1.35882108       0.00000000
Si      -1.22401920       1.47287664      -1.37818469       0.00000000
Si       1.36391283       1.36826226       1.35476269       0.00000000
Si       2.14433415       0.52707924      -2.50744049       0.00000000
Si       0.48304737       2.43959040      -2.75726806       0.00000000
Si      -2.70582129      -2.70451467      -0.03597677       0.00000000
Si       2.72824920      -2.68384266       0.00641198       0.00000000
Si       0.00565263      -2.69910639       2.71559915       0.00000000
Si      -2.71026554       0.01415601       2.71511601       0.00000000
