10
Lattice="16.28999089631971 0.0 0.0 0.0 16.28999089631971 0.0 0.0 0.0 34.51007289658418" Properties=species:S:1:pos:R:3:initial_magmoms:R:1 pbc="T T T"
Si      -1.35688763      -1.35632169       1.35721291       0.00000000
Si      -1.35758810       1.35733167      -1.35769605       0.00000000
Si       1.35772262      -1.35812988      -1.35766154       0.00000000
Si       1.35846056       1.35886293       1.35690231       0.00000000
Si      -0.00057555       2.71363707      -2.71497797       0.00000000
Si       2.71516343      -2.71459818      -0.00031059       0.00000000
Si       2.71534262       0.00037467      -2.71449483       0.00000000
Si      -2.71480574       2.71510317      -0.00003451       0.00000000
Si      -2.71491977      -2.71508688      -0.00013804       0.00000000
Si       2.71513085       2.71508688      -0.00055216       0.00000000
