10
Lattice="16.28999089631971 0.0 0.0 0.0 16.28999089631971 0.0 0.0 0.0 34.51007289658418" Properties=species:S:1:pos:R:3:initial_magmoms:R:1 pbc="T T T"
Si      -1.35667030      -1.35622395       1.35745448       0.00000000
Si       1.35767376       1.35571896       1.35724742       0.00000000
Si      -1.35741149       1.35674523      -1.35704035       0.00000000
Si       1.35754344      -1.35775521      -1.35738546       0.00000000
Si       0.00021177      -2.71471221      -2.71394267       0.00000000
Si       2.71441899       2.71459818       0.00020706       0.00000000
Si       2.71440270      -2.71524978       0.00003451       0.00000000
Si       2.71445157       0.00099369       2.71549562       0.00000000
Si      -2.71570640      -0.00144981      -2.71442581       0.00000000
Si      -2.71513085      -2.71508688       0.00055216       0.00000000
