10
Lattice="16.28999089631971 0.0 0.0 0.0 16.28999089631971 0.0 0.0 0.0 34.51007289658418" Properties=species:S:1:pos:R:3:initial_magmoms:R:1 pbc="T T T"
Si      -1.34474190      -1.33722981       1.37422638       0.00000000
Si      -1.35282174       1.35509994      -1.35755801       0.00000000
Si       1.36244500      -1.35791811      -1.35779958       0.00000000
Si       1.36518172       1.34389242       1.37332912       0.00000000
Si       0.09393798      -2.63785599       2.72954123       0.00000000
Si      -2.71057695       2.71458189       0.00358905       0.00000000
Si      -2.71082130      -0.00167787      -2.71473640       0.00000000
Si       0.00348769       2.71313208      -2.71508150       0.00000000
Si      -2.71349286      -2.71772586       0.00355454       0.00000000
Si       0.00398444      -2.71678104      -2.71470189       0.00000000
