10
Lattice="16.28999089631971 0.0 0.0 0.0 16.28999089631971 0.0 0.0 0.0 34.51007289658418" Properties=species:S:1:pos:R:3:initial_magmoms:R:1 pbc="T T T"
Si      -0.42658085       2.45746053      -0.36901642       0.00000000
Si       1.12678745      -0.46701801      -2.26203301       0.00000000
Si       0.59551353       0.06783156       2.53645727       0.00000000
Si      -1.19155227      -2.25878769       0.53045463       0.00000000
Si       3.13946093      -1.27044081      -1.04292950       0.00000000
Si      -3.29084457      -1.44045954       1.58998348       0.00000000
Si      -0.43017084       1.99184346       3.36283593       0.00000000
Si      -4.14095451       0.06390567      -0.14007646       0.00000000
Si       1.70742332       3.60424395      -1.15253355       0.00000000
Si       2.75776994      -0.59041476       3.08219986       0.00000000
