10
Lattice="16.28999089631971 0.0 0.0 0.0 16.28999089631971 0.0 0.0 0.0 34.51007289658418" Properties=species:S:1:pos:R:3:initial_magmoms:R:1 pbc="T T T"
Si      -0.87966652      -0.59313519      -2.11267333       0.00000000
Si      -1.63983678       0.35735373       1.78762278       0.00000000
Si       1.50267431      -1.96183728      -0.10221889       0.00000000
Si       0.90445664       2.63230110      -0.87307082       0.00000000
Si       1.68592052       2.35919925       1.85056918       0.00000000
Si       1.18936874      -0.49664952      -3.26582806       0.00000000
Si      -0.02114605       1.39248549       3.22965255       0.00000000
Si      -2.30293752       1.22078889      -2.58773926       0.00000000
Si       3.55710395      -0.94441275       0.25799745       0.00000000
Si      -1.31991517       3.18888153      -1.68091757       0.00000000
