10
Lattice="10.86 0.0 0.0 0.0 10.86 0.0 0.0 0.0 10.86" Properties=species:S:1:pos:R:3:initial_magmoms:R:1 pbc="T T T"
Si      -1.48474662      -1.11988320       1.37671134       0.00000000
Si       1.30353666      -1.51494828      -1.27492056       0.00000000
Si       1.23025338       1.59511680       1.37671134       0.00000000
Si      -1.48474662       1.59511680      -1.33828866       0.00000000
Si       2.45823702       0.03994308      -2.68025886       0.00000000
Si      -0.21118356      -2.44080672       2.73778428       0.00000000
Si      -0.16773270      -2.46967260      -2.72886822       0.00000000
Si       2.59436712       0.36432042       2.68401642       0.00000000
Si      -2.84224662      -2.47738320       0.01921134       0.00000000
Si      -2.84224662       0.23761680      -2.69578866       0.00000000
