10
Lattice="10.86 0.0 0.0 0.0 10.86 0.0 0.0 0.0 10.86" Properties=species:S:1:pos:R:3:initial_magmoms:R:1 pbc="T T T"
Si       1.17604026       1.14134256       1.47634098       0.00000000
Si      -1.53895974       1.14134256      -1.23865902       0.00000000
Si       1.17604026      -1.57365744      -1.23865902       0.00000000
Si       2.53354026       2.49884256       0.11884098       0.00000000
Si      -0.18145974       2.49884256      -2.59615902       0.00000000
Si       2.53354026      -0.21615744      -2.59615902       0.00000000
Si      -0.18145974       2.49884256       2.83384098       0.00000000
Si       2.53354026      -0.21615744       2.83384098       0.00000000
Si      -0.25702362      -2.97651966      -2.36989092       0.00000000
Si      -2.89645974       2.49884256       0.11884098       0.00000000
