10
Lattice="16.28999089631971 0.0 0.0 0.0 16.28999089631971 0.0 0.0 0.0 34.5300574570662" Properties=species:S:1:pos:R:3:initial_magmoms:R:1 pbc="T T T"
Si       2.18642751       0.64329210       0.38494130       0.00000000
Si      -0.71460972      -0.32879736       2.26071866       0.00000000
Si       0.69758667      -2.06716842      -1.05941728       0.00000000
Si      -1.43837116       1.60836057      -1.11953415       0.00000000
Si      -1.07992763      -3.20355882      -0.06695382       0.00000000
Si      -0.86469763      -2.65101831       2.26002805       0.00000000
Si       3.35363859       0.35192916      -1.65854865       0.00000000
Si      -0.80003448       3.72514737      -0.17527467       0.00000000
Si       0.97500537      -1.55706336      -3.34306391       0.00000000
Si      -2.94888815       0.33511788       2.44455678       0.00000000
