10
Lattice="16.28999089631971 0.0 0.0 0.0 16.28999089631971 0.0 0.0 0.0 34.5300574570662" Properties=species:S:1:pos:R:3:initial_magmoms:R:1 pbc="T T T"
Si       0.59295600      -1.94681790       1.34180425       0.00000000
Si      -1.35731538      -1.16054847      -1.67864515       0.00000000
Si       1.30013748       1.36401057      -1.63807231       0.00000000
Si       0.81445113       2.01204306       1.47294948       0.00000000
Si       2.50115031      -2.81285620       0.08069679       0.00000000
Si       2.67226047       0.81370179       2.55898946       0.00000000
Si      -2.62078407      -2.70828092      -0.39136389       0.00000000
Si       0.91733877      -1.01517651       3.56892514       0.00000000
Si      -0.84812256       2.11090707       3.16243708       0.00000000
Si       0.08115678      -2.50575224      -3.11074555       0.00000000
