10
Lattice="16.28999089631971 0.0 0.0 0.0 16.28999089631971 0.0 0.0 0.0 34.5300574570662" Properties=species:S:1:pos:R:3:initial_magmoms:R:1 pbc="T T T"
Si       0.32438277       0.93164139       2.22712089       0.00000000
Si      -0.59295600       1.94681790      -1.34180425       0.00000000
Si       1.90819431      -0.86603830      -1.26110746       0.00000000
Si      -1.59840738      -1.86407692      -0.17168354       0.00000000
Si       2.07930447       2.76051969       1.21718521       0.00000000
Si      -1.95027138       0.78626943      -3.02044940       0.00000000
Si      -3.21374007      -0.76146302      -1.73316814       0.00000000
Si       0.79832403      -2.00155949      -3.06671971       0.00000000
Si      -0.37613610      -3.39555995      -1.56666411       0.00000000
Si       1.69792299      -0.50396862       3.54572093       0.00000000
