10
Lattice="16.28999089631971 0.0 0.0 0.0 16.28999089631971 0.0 0.0 0.0 34.5300574570662" Properties=species:S:1:pos:R:3:initial_magmoms:R:1 pbc="T T T"
Si      -0.85838526      -0.96552459       1.93320088       0.00000000
Si      -1.52313129      -0.01938510      -1.76642061       0.00000000
Si       0.59401485       2.25132687       0.55486380       0.00000000
Si       2.00757960      -1.13300208      -0.72337058       0.00000000
Si       2.40130890       1.72300959       1.93720637       0.00000000
Si       3.47431491      -0.16421949       0.91473626       0.00000000
Si      -0.62543826       1.51443243      -3.24972911       0.00000000
Si      -1.28508552      -3.16902076       1.24788244       0.00000000
Si       2.17254843       2.66258421      -1.31131419       0.00000000
Si      -2.74147668       0.23444568       2.79479535       0.00000000
