10
Lattice="16.28999089631971 0.0 0.0 0.0 16.28999089631971 0.0 0.0 0.0 34.5300574570662" Properties=species:S:1:pos:R:3:initial_magmoms:R:1 pbc="T T T"
Si       0.86651397       1.90839793       1.11356045       0.00000000
Si      -1.80338445       0.04346987       1.54397785       0.00000000
Si       1.47044943      -1.90475616       0.27769088       0.00000000
Si      -1.06675065       1.15767328      -1.85875403       0.00000000
Si      -1.34659656       2.35407604       1.74083382       0.00000000
Si       0.83044791       2.52376897      -2.30591853       0.00000000
Si      -1.02635145      -1.37522298       3.22124180       0.00000000
Si       0.02489112      -3.75324762       0.12427375       0.00000000
Si       1.76420700       3.44221546      -0.36974806       0.00000000
Si      -1.74946455      -0.18582166      -3.65573376       0.00000000
