10
Lattice="16.28999089631971 0.0 0.0 0.0 16.28999089631971 0.0 0.0 0.0 34.5300574570662" Properties=species:S:1:pos:R:3:initial_magmoms:R:1 pbc="T T T"
Si       1.32760242       1.36109466      -1.34232220       0.00000000
Si       1.35402480      -1.35198855       1.35461491       0.00000000
Si      -1.34113941      -1.36497168      -1.35957343       0.00000000
Si      -1.35821133       1.35817875       1.35299200       0.00000000
Si      -2.46433491       0.20455353      -2.68794894       0.00000000
Si       2.56393197      -0.03611493      -2.71394318       0.00000000
Si      -0.07286517       2.63073726      -2.75018249       0.00000000
Si      -0.00104256      -2.71206834       2.71175052       0.00000000
Si       2.71394658       0.00208512       2.71161240       0.00000000
Si      -2.71630863       0.00272043       2.71071462       0.00000000
