10
Lattice="16.28999089631971 0.0 0.0 0.0 16.28999089631971 0.0 0.0 0.0 34.5300574570662" Properties=species:S:1:pos:R:3:initial_magmoms:R:1 pbc="T T T"
Si       1.35821133      -1.35817875      -1.35299200       0.00000000
Si      -1.35809730      -1.35545832       1.35772262       0.00000000
Si       1.35700587       1.35941679       1.35848228       0.00000000
Si      -1.36269108       1.36142046      -1.35796433       0.00000000
Si       2.68581375       0.00291591      -2.69531420       0.00000000
Si       0.02052540       2.71018359      -2.69989980       0.00000000
Si       2.71223613      -2.71016730       0.00162291       0.00000000
Si      -0.00047241      -2.71287144       2.71568695       0.00000000
Si      -2.71557558      -2.71319724       0.00172650       0.00000000
Si       2.71406061       0.00193851       2.71585960       0.00000000
