10
Lattice="16.28999089631971 0.0 0.0 0.0 16.28999089631971 0.0 0.0 0.0 34.5300574570662" Properties=species:S:1:pos:R:3:initial_magmoms:R:1 pbc="T T T"
Si      -1.36171368      -1.33550307      -1.38130666       0.00000000
Si      -1.41133302       1.38704463       1.30095517       0.00000000
Si       1.35795069       1.37718918      -1.37819895       0.00000000
Si       1.20669804      -1.53391527       1.47153375       0.00000000
Si       2.58435963       0.02707398       2.56258059       0.00000000
Si      -2.71870326      -2.69074962      -0.00728585       0.00000000
Si       2.69689095      -2.71625976       0.00718226       0.00000000
Si       2.68330509       2.74139523      -0.05051750       0.00000000
Si      -0.00545715      -2.69708643      -2.73623234       0.00000000
Si       2.70839169       0.02070459      -2.73619781       0.00000000
