10
Lattice="16.28999089631971 0.0 0.0 0.0 16.28999089631971 0.0 0.0 0.0 34.5300574570662" Properties=species:S:1:pos:R:3:initial_magmoms:R:1 pbc="T T T"
Si      -2.07464553       0.94152942      -0.64505636       0.00000000
Si       0.12738780      -0.55591254       2.30294894       0.00000000
Si      -0.53629938      -1.93839597      -1.34442854       0.00000000
Si       1.58834016       1.83316257      -0.09274779       0.00000000
Si       1.37363796       0.74885130      -2.77915323       0.00000000
Si       0.40913964      -2.87630901       2.01234381       0.00000000
Si       0.28181700       3.75482871       0.36356718       0.00000000
Si      -1.94738805       3.23949456      -0.36291111       0.00000000
Si       1.12627431      -2.03725998      -3.03391613       0.00000000
Si      -0.52461945      -3.79475550       0.07617335       0.00000000
