10
Lattice="16.28999089631971 0.0 0.0 0.0 16.28999089631971 0.0 0.0 0.0 34.5300574570662" Properties=species:S:1:pos:R:3:initial_magmoms:R:1 pbc="T T T"
Si      -2.08471275       1.00413189       0.47009246       0.00000000
Si       1.93740228       0.34775892       1.33745346       0.00000000
Si      -0.71931753      -2.19781422       0.56947003       0.00000000
Si       0.20450466       0.99404838      -2.20232830       0.00000000
Si      -0.69331869      -3.15345078      -1.53634671       0.00000000
Si      -1.85171688       0.35163594      -3.15964014       0.00000000
Si      -1.52124165       2.99335266       1.50782486       0.00000000
Si       0.36968526       3.67104924       0.28097123       0.00000000
Si       2.41307028       2.65202829       0.93624850       0.00000000
Si       0.92365929       0.44038386       3.57959494       0.00000000
