10
Lattice="16.28999089631971 0.0 0.0 0.0 16.28999089631971 0.0 0.0 0.0 34.5300574570662" Properties=species:S:1:pos:R:3:initial_magmoms:R:1 pbc="T T T"
Si      -1.35746199      -1.35661491      -1.35862040       0.00000000
Si       1.35747828       1.35861858      -1.35865493       0.00000000
Si       1.36215351      -1.35705474       1.35782621       0.00000000
Si      -1.36065483       1.36026387       1.35717014       0.00000000
Si       2.68750791       0.00715131       2.68550766       0.00000000
Si       2.71259451      -2.71353933      -0.00017265       0.00000000
Si       0.00019548      -2.71399545      -2.71599772       0.00000000
Si      -2.71521720       0.00110772      -2.71575601       0.00000000
Si      -2.71642266      -2.71480995      -0.00141573       0.00000000
Si       2.71541268       0.00078192      -2.71585960       0.00000000
