10
Lattice="16.28999089631971 0.0 0.0 0.0 16.28999089631971 0.0 0.0 0.0 34.5300574570662" Properties=species:S:1:pos:R:3:initial_magmoms:R:1 pbc="T T T"
Si      -0.48988917       0.27759789       2.27939943       0.00000000
Si       1.30652316      -1.92166614      -0.45631496       0.00000000
Si      -2.22920505      -0.51533415      -0.72647828       0.00000000
Si       0.78258789       2.24888337      -0.61725965       0.00000000
Si      -1.28710548       2.78813124      -1.68593100       0.00000000
Si      -1.61199324       2.46339009       2.14279844       0.00000000
Si      -2.39534676       0.80006706      -2.71630849       0.00000000
Si      -0.28181700      -3.75482871      -0.36356718       0.00000000
Si      -2.35646253      -2.81329929      -1.00862354       0.00000000
Si       3.69059724       0.02254536      -1.02664824       0.00000000
