10
Lattice="16.28999089631971 0.0 0.0 0.0 16.28999089631971 0.0 0.0 0.0 34.5300574570662" Properties=species:S:1:pos:R:3:initial_magmoms:R:1 pbc="T T T"
Si      -1.35852084      -1.35596331       1.35682484       0.00000000
Si       1.35755973      -1.35746199      -1.35768809       0.00000000
Si       1.35726651       1.35822762       1.35789527       0.00000000
Si      -1.35912357       1.35868374      -1.35741185       0.00000000
Si      -2.71331127      -0.00185706       2.71164693       0.00000000
Si      -0.00340461      -2.71292031       2.71544524       0.00000000
Si       2.71472850      -2.71456560      -0.00037983       0.00000000
Si      -2.71529865      -2.71435383      -0.00017265       0.00000000
Si       2.71337643      -0.00130320      -2.71644661       0.00000000
Si      -0.00120546       2.71525977      -2.71492728       0.00000000
