10
Lattice="16.28999089631971 0.0 0.0 0.0 16.28999089631971 0.0 0.0 0.0 34.5300574570662" Properties=species:S:1:pos:R:3:initial_magmoms:R:1 pbc="T T T"
Si       0.85652820       1.67027886       1.47899225       0.00000000
Si      -2.06969337       0.53924787      -1.06867135       0.00000000
Si       1.94432553      -0.22968900      -1.46611253       0.00000000
Si      -0.78258789      -2.24888337       0.61725965       0.00000000
Si       0.87493590      -0.89024850      -3.42424412       0.00000000
Si      -2.39458113       0.21450672       2.76005810       0.00000000
Si       2.90800935      -2.22633801      -0.40938859       0.00000000
Si      -0.94902282       2.06299818       2.91347523       0.00000000
Si      -1.27247706      -1.97128548       2.89665908       0.00000000
Si      -3.69989883       0.38703411       0.71135411       0.00000000
