10
Lattice="16.28999089631971 0.0 0.0 0.0 16.28999089631971 0.0 0.0 0.0 34.5300574570662" Properties=species:S:1:pos:R:3:initial_magmoms:R:1 pbc="T T T"
Si       1.44555831       1.84849146       0.15341713       0.00000000
Si      -1.16721108       0.29136294       2.04348994       0.00000000
Si      -1.30531770       0.17252739      -2.04870398       0.00000000
Si       1.12210407      -2.18579220       0.13660098       0.00000000
Si      -2.37863322      -1.90899252      -1.68451526       0.00000000
Si       1.61199324      -2.46339009      -2.14279844       0.00000000
Si      -2.65605192      -2.41909758       0.59913136       0.00000000
Si       2.39458113      -0.21450672      -2.76005810       0.00000000
Si       2.41173450       1.58430024       2.31296266       0.00000000
Si      -0.02489112       3.75324762      -0.12427375       0.00000000
