10
Lattice="16.28999089631971 0.0 0.0 0.0 16.28999089631971 0.0 0.0 0.0 34.5300574570662" Properties=species:S:1:pos:R:3:initial_magmoms:R:1 pbc="T T T"
Si      -0.26463105      -2.27423061      -0.19858247       0.00000000
Si      -1.12335840       1.37529954      -1.58897054       0.00000000
Si      -0.53587584       0.50127588       2.27197546       0.00000000
Si       2.28105612       0.46232649      -0.53652833       0.00000000
Si       1.18886049       2.09117988       2.21703811       0.00000000
Si       2.96375373       0.53815644       1.69062709       0.00000000
Si      -0.53906868      -2.51690274      -2.50781588       0.00000000
Si      -1.00738989       3.46196124      -0.53549243       0.00000000
Si      -2.76037308       1.33343424       2.08216363       0.00000000
Si       1.77875397      -3.29325156       0.45669480       0.00000000
