10
Lattice="16.28999089631971 0.0 0.0 0.0 16.28999089631971 0.0 0.0 0.0 34.5300574570662" Properties=species:S:1:pos:R:3:initial_magmoms:R:1 pbc="T T T"
Si      -1.78010604      -1.53334512       0.54139707       0.00000000
Si       2.02378815      -1.33001334      -0.01785205       0.00000000
Si      -0.57476007       1.27985643      -2.01607306       0.00000000
Si       0.56988936       1.95975216       1.43299819       0.00000000
Si       1.14997626       2.86976043      -2.07101041       0.00000000
Si       2.84890923      -1.11900897      -2.18085059       0.00000000
Si      -1.69790670      -3.24197064      -1.14173699       0.00000000
Si       3.74266008      -0.13587489       1.40634097       0.00000000
Si      -3.94938344      -0.60341418       0.27199341       0.00000000
Si       2.92486950       1.31673699      -2.59742143       0.00000000
