10
Lattice="16.28999089631971 0.0 0.0 0.0 16.28999089631971 0.0 0.0 0.0 34.5300574570662" Properties=species:S:1:pos:R:3:initial_magmoms:R:1 pbc="T T T"
Si      -1.34169327      -1.33398810      -1.38562292       0.00000000
Si       1.37168316       1.37953494      -1.37861331       0.00000000
Si      -1.49019291       1.18234449       1.46435149       0.00000000
Si       1.15002513      -1.58058612       1.47654061       0.00000000
Si       2.57834862       0.02904507       2.54514290       0.00000000
Si      -0.11253132       2.74333374       2.55539833       0.00000000
Si      -2.70917361      -2.68741832      -0.00832175       0.00000000
Si       2.70619254      -2.70112798      -0.01111868       0.00000000
Si      -2.69689095       2.71625976      -0.00718226       0.00000000
Si       0.01343925      -2.69472275      -2.74393255       0.00000000
