10
Lattice="16.28999089631971 0.0 0.0 0.0 16.28999089631971 0.0 0.0 0.0 34.5300574570662" Properties=species:S:1:pos:R:3:initial_magmoms:R:1 pbc="T T T"
Si      -1.61505576      -0.65572137       1.47698950       0.00000000
Si       0.06597450      -1.69463797      -1.55775535       0.00000000
Si      -0.62416764       1.84292191      -1.27985729       0.00000000
Si       2.23542783      -0.11570624       0.75396423       0.00000000
Si      -0.43650684       0.51714397       3.22355532       0.00000000
Si       2.80815165       2.06659990       0.00673336       0.00000000
Si       1.98210204      -1.06750325      -2.77017541       0.00000000
Si       1.45639116       2.58390514      -2.03109364       0.00000000
Si       0.14450859      -3.60692107      -0.19771922       0.00000000
Si      -2.09090295       0.87413932      -2.91796414       0.00000000
