10
Lattice="16.28999089631971 0.0 0.0 0.0 16.28999089631971 0.0 0.0 0.0 34.5300574570662" Properties=species:S:1:pos:R:3:initial_magmoms:R:1 pbc="T T T"
Si       1.10849866      -1.93770920       0.83383229       0.00000000
Si       1.02009772       1.66606952      -1.40893072       0.00000000
Si      -2.15163437      -0.69149910      -0.86301021       0.00000000
Si       0.54319494      -3.51562376      -1.04978339       0.00000000
Si      -1.81780340      -3.07385525      -1.01021193       0.00000000
Si       0.22152282      -1.81872704       3.27431453       0.00000000
Si       2.97959250       0.74060204      -2.25229332       0.00000000
Si       3.53120448      -1.60449725       1.11825654       0.00000000
Si       2.19037458       3.45112772      -0.18066136       0.00000000
Si      -0.03233891       2.00574860      -3.59537518       0.00000000
