10
Lattice="16.28999089631971 0.0 0.0 0.0 16.28999089631971 0.0 0.0 0.0 34.5300574570662" Properties=species:S:1:pos:R:3:initial_magmoms:R:1 pbc="T T T"
Si       1.36065483       1.36585134      -1.33708399       0.00000000
Si      -1.35711990       1.35713619       1.36072673       0.00000000
Si       1.35912357      -1.35866745       1.35979442       0.00000000
Si      -1.38461742      -1.35791811      -1.33676286       0.00000000
Si      -0.08089614       2.61974151      -2.65331527       0.00000000
Si       2.62604574       0.02533095      -2.75384268       0.00000000
Si      -2.71023246       2.71213839       0.00234805       0.00000000
Si      -2.71342530      -0.00141723       2.71703362       0.00000000
Si       0.00179190       2.71336014       2.71717174       0.00000000
Si      -2.71221984      -2.71901277       0.00555934       0.00000000
