10
Lattice="16.28999089631971 0.0 0.0 0.0 16.28999089631971 0.0 0.0 0.0 34.5300574570662" Properties=species:S:1:pos:R:3:initial_magmoms:R:1 pbc="T T T"
Si      -0.89342505      -1.83389562       1.25709472       0.00000000
Si       1.88090856       0.94656303       1.21163588       0.00000000
Si       0.80257572      -0.67277700      -2.22940509       0.00000000
Si      -1.74557124       1.83226662      -0.05908649       0.00000000
Si      -2.12975460      -0.43668603       2.62871570       0.00000000
Si       0.55513062       1.70935857      -2.98772011       0.00000000
Si       0.61551765       2.28708342       2.62839457       0.00000000
Si      -3.53022219       0.83295657       1.22085541       0.00000000
Si       3.09518145      -1.18926774      -1.95209405       0.00000000
Si      -0.61696746      -2.82945897      -2.55937451       0.00000000
