10
Lattice="16.28999089631971 0.0 0.0 0.0 16.28999089631971 0.0 0.0 0.0 34.5300574570662" Properties=species:S:1:pos:R:3:initial_magmoms:R:1 pbc="T T T"
Si       1.34640108       1.34944731      -1.37253602       0.00000000
Si      -1.36876725      -1.36523232      -1.36038143       0.00000000
Si      -1.38289068       1.43107650       1.29014726       0.00000000
Si       1.41178914      -1.34804637       1.37802630       0.00000000
Si      -0.16210179      -2.71572219       2.56337478       0.00000000
Si       2.67421527       2.70329292      -0.01087697       0.00000000
Si       2.70420516      -0.00736308      -2.72646033       0.00000000
Si      -0.01037673       2.70570384      -2.72618409       0.00000000
Si      -2.85298173      -0.00143352       2.57363021       0.00000000
Si       2.71609686      -2.72403009      -0.01122227       0.00000000
