10
Lattice="16.28999089631971 0.0 0.0 0.0 16.28999089631971 0.0 0.0 0.0 34.5300574570662" Properties=species:S:1:pos:R:3:initial_magmoms:R:1 pbc="T T T"
Si      -1.44155097       1.25389017      -1.31623128       0.00000000
Si       1.26539091      -1.34052039      -1.41675869       0.00000000
Si       1.35858600       1.34685720       1.33791271       0.00000000
Si      -1.36065483      -1.36585134       1.33708399       0.00000000
Si      -0.61551765      -2.28708342      -2.62839457       0.00000000
Si      -2.36108889      -0.45481680      -2.68748105       0.00000000
Si      -0.00180819       2.70374904       2.69604969       0.00000000
Si       2.71114470      -0.00983916       2.69656764       0.00000000
Si      -2.71777473      -0.00871515       2.69781073       0.00000000
Si      -0.00153126      -2.72451879       2.69687841       0.00000000
