10
Lattice="16.28999089631971 0.0 0.0 0.0 16.28999089631971 0.0 0.0 0.0 34.5300574570662" Properties=species:S:1:pos:R:3:initial_magmoms:R:1 pbc="T T T"
Si      -1.35747828      -1.35773892      -1.35599611       0.00000000
Si       1.35809730       1.35545832      -1.35772262       0.00000000
Si       1.35762489      -1.35741312       1.35796433       0.00000000
Si      -1.35791811       1.35765747       1.35792980       0.00000000
Si      -0.00490329      -2.71249351      -2.71313172       0.00000000
Si       2.71630863      -0.00272043      -2.71071462       0.00000000
Si      -2.71200970      -0.00425169      -2.71686097       0.00000000
Si      -0.00151497       2.71406061       2.71534165       0.00000000
Si       2.71510317       2.71487511       0.00075966       0.00000000
Si       2.71526607      -2.71478877       0.00103590       0.00000000
