10
Lattice="16.28999089631971 0.0 0.0 0.0 16.28999089631971 0.0 0.0 0.0 34.5300574570662" Properties=species:S:1:pos:R:3:initial_magmoms:R:1 pbc="T T T"
Si      -1.75951548      -1.04953212      -1.16286939       0.00000000
Si       1.05474492       1.81451052      -1.08873332       0.00000000
Si      -1.54849482       1.17939600       1.46193439       0.00000000
Si       1.71535329      -1.89157851       0.23470093       0.00000000
Si       2.34672111       0.37427904      -2.48485338       0.00000000
Si      -0.39926790      -2.34404955      -2.52711820       0.00000000
Si       2.38555647       3.02133888       0.57679040       0.00000000
Si       3.59934066      -1.07175168      -1.06145456       0.00000000
Si      -0.47910519       1.83995550       3.42006598       0.00000000
Si       0.97187769      -3.62586078      -1.19750306       0.00000000
