10
Lattice="16.28999089631971 0.0 0.0 0.0 16.28999089631971 0.0 0.0 0.0 34.5300574570662" Properties=species:S:1:pos:R:3:initial_magmoms:R:1 pbc="T T T"
Si      -1.18596087      -1.01366154       1.80613019       0.00000000
Si      -1.83034440       0.55285002      -1.43241117       0.00000000
Si       1.46004012      -1.45925820      -1.20440908       0.00000000
Si       1.23675309       2.03217750       0.31826372       0.00000000
Si       0.27938979       0.11008782      -2.82773705       0.00000000
Si       0.55372968       2.49706152      -2.00274445       0.00000000
Si       0.46423242      -3.58818201      -1.32429750       0.00000000
Si      -1.34775315       0.53910126       3.59185311       0.00000000
Si      -3.41868456      -1.28031255      -1.33966339       0.00000000
Si      -3.29129676      -1.83622509       0.96328555       0.00000000
