10
Lattice="16.28999089631971 0.0 0.0 0.0 16.28999089631971 0.0 0.0 0.0 34.5300574570662" Properties=species:S:1:pos:R:3:initial_magmoms:R:1 pbc="T T T"
Si      -1.66620636       0.02161683       1.66400440       0.00000000
Si       0.16179228      -1.55276280      -1.78572292       0.00000000
Si      -0.32107590       2.20439538      -0.86874220       0.00000000
Si       1.81027512      -0.59370534       1.50540776       0.00000000
Si      -0.55716687       1.41727887       3.31450754       0.00000000
Si      -2.14187436      -2.28265254       2.06520936       0.00000000
Si       1.13619492      -3.54757104      -0.98075777       0.00000000
Si       1.77583806       3.03274188      -1.57840434       0.00000000
Si       1.34775315      -0.53910126      -3.59185311       0.00000000
Si       3.61654290       0.82266129       1.17657784       0.00000000
