10
Lattice="16.28999089631971 0.0 0.0 0.0 16.28999089631971 0.0 0.0 0.0 34.5300574570662" Properties=species:S:1:pos:R:3:initial_magmoms:R:1 pbc="T T T"
Si      -1.35581670      -1.35615879       1.35875852       0.00000000
Si       1.36164852      -1.35555606      -1.35651407       0.00000000
Si       1.35920502       1.35878148       1.35841322       0.00000000
Si      -1.35513252       1.36275624      -1.36058861       0.00000000
Si       0.00135207      -2.71326240       2.71606678       0.00000000
Si      -2.71337643       0.00130320       2.71644661       0.00000000
Si      -2.71456560      -2.71578735       0.00131214       0.00000000
Si       2.71580364       2.71524978       0.00224445       0.00000000
Si      -2.71458189       2.71656297       0.00151932       0.00000000
Si       2.71634121      -2.71485882       0.00065607       0.00000000
