10
Lattice="16.28999089631971 0.0 0.0 0.0 16.28999089631971 0.0 0.0 0.0 34.5300574570662" Properties=species:S:1:pos:R:3:initial_magmoms:R:1 pbc="T T T"
Si      -1.34975682      -1.36660068      -1.36321290       0.00000000
Si       1.36572102       1.35237951      -1.36300572       0.00000000
Si      -1.40659263       1.27273770       1.40071256       0.00000000
Si       1.43288469      -1.27099467       1.40388933       0.00000000
Si       2.69865027       2.70165319       0.01208553       0.00000000
Si      -2.69775432      -2.71873584      -0.00559387       0.00000000
Si       0.00589698       2.70805842      -2.72072834       0.00000000
Si      -2.70861975      -0.00529425      -2.72038304       0.00000000
Si      -2.71671588       2.71536285       0.01488246       0.00000000
Si       2.72486088      -2.71122615       0.00776927       0.00000000
