10
Lattice="16.28999089631971 0.0 0.0 0.0 16.28999089631971 0.0 0.0 0.0 34.5300574570662" Properties=species:S:1:pos:R:3:initial_magmoms:R:1 pbc="T T T"
Si       0.31092723       0.49570470      -2.30954418       0.00000000
Si      -0.75166947      -2.11090707       0.84270652       0.00000000
Si      -1.81346796       1.38836412       0.81660179       0.00000000
Si       1.73195280       0.97415829       1.49439266       0.00000000
Si       2.72886822      -1.07678529       1.77149653       0.00000000
Si       1.51011558      -3.00506517       0.98262239       0.00000000
Si       0.35881983       2.90565286      -2.05685308       0.00000000
Si      -1.56946005      -0.65829519      -3.16105588       0.00000000
Si      -0.85439421      -1.52032941       3.33087479       0.00000000
Si      -2.86601373       2.48775897      -0.99118585       0.00000000
