10
Lattice="16.28999089631971 0.0 0.0 0.0 16.28999089631971 0.0 0.0 0.0 34.5300574570662" Properties=species:S:1:pos:R:3:initial_magmoms:R:1 pbc="T T T"
Si       0.49857174      -2.29439504      -0.14630394       0.00000000
Si       1.82616669       0.19014991      -1.49352941       0.00000000
Si       0.25164792       0.65480261       2.32898462       0.00000000
Si      -0.26476137       1.05345149      -2.57998374       0.00000000
Si      -1.35593073       2.57058806      -1.03752522       0.00000000
Si      -2.03906817       0.09221769       2.85239152       0.00000000
Si       1.63114965      -1.19429876       3.01205860       0.00000000
Si       2.88478863      -2.27300627      -0.43414666       0.00000000
Si       0.66616326      -3.09187199       1.98250983       0.00000000
Si      -2.54024631      -2.05594202      -2.26531116       0.00000000
