10
Lattice="16.28999089631971 0.0 0.0 0.0 16.28999089631971 0.0 0.0 0.0 34.5300574570662" Properties=species:S:1:pos:R:3:initial_magmoms:R:1 pbc="T T T"
Si       1.32606301       1.21094973      -1.61545511       0.00000000
Si       0.93994115      -2.05268661       1.08880238       0.00000000
Si      -1.41919974      -1.38653964      -1.59017909       0.00000000
Si      -1.11607677       2.05529301       1.40882713       0.00000000
Si      -1.08832513      -3.36394690       0.73659560       0.00000000
Si       2.35274026       1.93174965       1.99725417       0.00000000
Si       2.48175706       2.77516440      -0.30120586       0.00000000
Si      -2.87375052       2.64860739      -0.19178005       0.00000000
Si       0.53047570       1.89374508       3.50701272       0.00000000
Si      -0.06963649       2.59683777      -3.07507599       0.00000000
