10
Lattice="16.28999089631971 0.0 0.0 0.0 16.28999089631971 0.0 0.0 0.0 34.5300574570662" Properties=species:S:1:pos:R:3:initial_magmoms:R:1 pbc="T T T"
Si      -1.35255870       1.35669636      -1.35865493       0.00000000
Si      -1.35509994      -1.35694071       1.35723920       0.00000000
Si       1.35910728       1.35759231       1.35689390       0.00000000
Si       1.35729909      -1.35641943      -1.36307478       0.00000000
Si      -2.71114470       0.00983916      -2.69656764       0.00000000
Si      -2.71295289       2.71358820      -0.00051795       0.00000000
Si      -2.71267596      -2.71467963       0.00031077       0.00000000
Si      -2.71261080      -0.00008145       2.71513447       0.00000000
Si       0.00244350      -2.71446786       2.71534165       0.00000000
Si       0.00218286       2.71523349       2.71478916       0.00000000
