10
Lattice="16.28999089631971 0.0 0.0 0.0 16.28999089631971 0.0 0.0 0.0 34.5300574570662" Properties=species:S:1:pos:R:3:initial_magmoms:R:1 pbc="T T T"
Si       1.35723134       1.35780408       1.35830963       0.00000000
Si      -1.35806472      -1.35752715       1.35810245       0.00000000
Si      -1.36008468       1.35853713      -1.36172811       0.00000000
Si       1.36026943      -1.36159965      -1.35872399       0.00000000
Si      -2.71534752      -2.71412577       0.00031077       0.00000000
Si       2.71480085      -2.71508688       0.00214086       0.00000000
Si       2.71436102       0.00030951       2.71606678       0.00000000
Si      -0.00016290       2.71476108       2.71627396       0.00000000
Si      -0.00011788      -2.71451673       2.71696456       0.00000000
Si      -2.71494027       0.00048870       2.71668832       0.00000000
