10
Lattice="16.28999089631971 0.0 0.0 0.0 16.28999089631971 0.0 0.0 0.0 34.5300574570662" Properties=species:S:1:pos:R:3:initial_magmoms:R:1 pbc="T T T"
Si       1.32781419       1.35384561       1.36165905       0.00000000
Si      -1.35677781       1.35625653      -1.35364807       0.00000000
Si      -1.34640108      -1.34944731       1.37253602       0.00000000
Si       1.35780408      -1.35681039      -1.35392431       0.00000000
Si      -2.72929176       0.08162919       2.66268328       0.00000000
Si       2.59919982       0.05351265       2.80163231       0.00000000
Si      -0.00008145      -2.71474479      -2.71064556       0.00000000
Si       2.71469592      -0.00047241      -2.71105992       0.00000000
Si      -2.71513575      -0.00035838      -2.71085274       0.00000000
Si      -0.00034209       2.71495656      -2.71119804       0.00000000
