10
Lattice="16.28999089631971 0.0 0.0 0.0 16.28999089631971 0.0 0.0 0.0 34.5300574570662" Properties=species:S:1:pos:R:3:initial_magmoms:R:1 pbc="T T T"
Si       0.68839911      -1.45759662      -1.69746404       0.00000000
Si      -0.49335894       2.09754927      -0.94864480       0.00000000
Si      -1.99119186      -0.66002193       1.14177152       0.00000000
Si       1.44445059       0.16630461       1.89984482       0.00000000
Si      -1.07981523       3.21088932       1.11421652       0.00000000
Si      -0.29781378      -0.36652500       3.66609278       0.00000000
Si       0.11567529      -3.63990276      -0.95023318       0.00000000
Si       3.01619028      -1.81340280      -1.53026941       0.00000000
Si      -0.66336138      -0.94029138      -3.73529105       0.00000000
Si      -2.33750097       1.98146673      -2.45795445       0.00000000
