10
Lattice="16.28999089631971 0.0 0.0 0.0 16.28999089631971 0.0 0.0 0.0 34.5300574570662" Properties=species:S:1:pos:R:3:initial_magmoms:R:1 pbc="T T T"
Si       1.48677594       1.12961376       1.45714649       0.00000000
Si      -1.25248923      -1.55434293       1.34266547       0.00000000
Si      -1.43956359       1.32032079      -1.56096665       0.00000000
Si       0.90059332       0.62053497      -2.98992482       0.00000000
Si      -2.88945504      -1.01530683      -1.64922553       0.00000000
Si      -1.14719067      -0.48247722      -3.41547348       0.00000000
Si       0.06714585       2.45229660       2.88555217       0.00000000
Si      -2.78834301       2.63290383       0.05952985       0.00000000
Si       3.19338476       2.27960631       0.16515736       0.00000000
Si      -2.65603563      -0.26795421       2.88048316       0.00000000
