10
Lattice="16.28999089631971 0.0 0.0 0.0 16.28999089631971 0.0 0.0 0.0 34.5300574570662" Properties=species:S:1:pos:R:3:initial_magmoms:R:1 pbc="T T T"
Si       1.35663676       1.35567009       1.35744638       0.00000000
Si      -1.35689184      -1.35633798       1.35713561       0.00000000
Si       1.35739424      -1.35695700      -1.35796433       0.00000000
Si      -1.35811359       1.35778779      -1.35803339       0.00000000
Si      -2.71469592       0.00047241       2.71105992       0.00000000
Si       2.71056545       0.00327429       2.71630849       0.00000000
Si       2.71452392      -2.71445157      -0.00020718       0.00000000
Si      -2.71477737      -2.71427238       0.00041436       0.00000000
Si       2.71480085       2.71559187       0.00017265       0.00000000
Si      -2.71503801       2.71542897      -0.00013812       0.00000000
