10
Lattice="16.28999089631971 0.0 0.0 0.0 16.28999089631971 0.0 0.0 0.0 34.5300574570662" Properties=species:S:1:pos:R:3:initial_magmoms:R:1 pbc="T T T"
Si       1.70567703       1.07347842       1.20002376       0.00000000
Si      -1.25261955       1.44603072      -1.42339882       0.00000000
Si       1.42964298      -1.28189268      -1.43707273       0.00000000
Si      -1.88398737      -0.81982683       1.29615549       0.00000000
Si       0.26986014       2.46057192       2.68954768       0.00000000
Si      -2.62746297      -2.55410910      -0.13604850       0.00000000
Si       2.70102861      -2.58222564       0.00290053       0.00000000
Si       3.52405710      -0.64773927       1.27094854       0.00000000
Si      -2.61762381       0.08169435      -2.79520971       0.00000000
Si       0.10182879      -2.63573829      -2.79873178       0.00000000
