10
Lattice="16.28999089631971 0.0 0.0 0.0 16.28999089631971 0.0 0.0 0.0 34.5300574570662" Properties=species:S:1:pos:R:3:initial_magmoms:R:1 pbc="T T T"
Si      -0.15128523       1.99891332      -1.27775096       0.00000000
Si       1.17893988       0.11502369       2.08651442       0.00000000
Si       1.04107761      -1.72046835      -1.36165905       0.00000000
Si      -2.47063914       0.09633906       0.03860463       0.00000000
Si       0.13093902      -1.69095087       3.15332114       0.00000000
Si       0.07789878      -1.02656322      -3.43325647       0.00000000
Si      -1.03055427       1.11904155      -3.26751210       0.00000000
Si       0.39473928       2.07664920       3.12956445       0.00000000
Si       0.03331305      -3.75635997      -0.63763240       0.00000000
Si       1.95372486       2.70332550      -1.93458208       0.00000000
