10
Lattice="16.28999089631971 0.0 0.0 0.0 16.28999089631971 0.0 0.0 0.0 34.5300574570662" Properties=species:S:1:pos:R:3:initial_magmoms:R:1 pbc="T T T"
Si      -0.91385271       0.32975847      -2.10989128       0.00000000
Si       1.34998066      -1.92598299       0.00134667       0.00000000
Si      -1.73433114      -0.47498382       1.55195430       0.00000000
Si       1.13183313       1.88561637       0.95551628       0.00000000
Si      -0.60059601       1.48822182       2.59742143       0.00000000
Si       3.38330987      -0.75294009      -0.45821412       0.00000000
Si       0.79505530      -2.73869109      -2.17156200       0.00000000
Si       3.30111053       0.95568543       1.22491994       0.00000000
Si       0.86784879       1.34860023      -3.31840944       0.00000000
Si      -2.99066481       1.39028634      -1.64784432       0.00000000
