10
Lattice="16.28999089631971 0.0 0.0 0.0 16.28999089631971 0.0 0.0 0.0 34.5300574570662" Properties=species:S:1:pos:R:3:initial_magmoms:R:1 pbc="T T T"
Si      -1.36024758      -1.35604476      -1.35819913       0.00000000
Si       1.35651717      -1.35720135       1.36362726       0.00000000
Si      -1.35944937       1.35716877       1.36290213       0.00000000
Si       1.36549296       1.36010097      -1.38798823       0.00000000
Si       2.71031391      -2.70982521       0.00231352       0.00000000
Si      -2.71360449      -2.71363707       0.00414361       0.00000000
Si       2.71313208       2.71646894      -0.00103590       0.00000000
Si      -2.71567332       2.71566585       0.00069060       0.00000000
Si       2.71329498       0.00172674       2.71907089       0.00000000
Si      -0.00184077      -2.71384884       2.71907089       0.00000000
