10
Lattice="16.28999089631971 0.0 0.0 0.0 16.28999089631971 0.0 0.0 0.0 34.5300574570662" Properties=species:S:1:pos:R:3:initial_magmoms:R:1 pbc="T T T"
Si       1.34763912       1.35636797       1.38695233       0.00000000
Si      -1.36549296      -1.36010097       1.38798823       0.00000000
Si       1.45520199      -1.34302905      -1.45009748       0.00000000
Si      -1.36166481       1.41109260      -1.47925122       0.00000000
Si       2.70151731       2.72157749      -0.00766222       0.00000000
Si       2.69801496      -2.72699487       0.02187135       0.00000000
Si      -2.72570796       2.71369313       0.01753437       0.00000000
Si      -2.72574054      -2.71614573       0.02978910       0.00000000
Si       2.70609480      -0.00244350       2.74944010       0.00000000
Si      -0.00941562       2.71427957       2.74878403       0.00000000
