10
Lattice="16.28999089631971 0.0 0.0 0.0 16.28999089631971 0.0 0.0 0.0 34.5300574570662" Properties=species:S:1:pos:R:3:initial_magmoms:R:1 pbc="T T T"
Si      -1.35829278      -1.35593073       1.35761903       0.00000000
Si       1.35711894       1.35794159       1.35761903       0.00000000
Si       1.35951683      -1.35749457      -1.35941459       0.00000000
Si      -1.35845568       1.35881147      -1.36248777       0.00000000
Si       2.71392119      -2.71336014      -0.00006906       0.00000000
Si       2.71416554       0.00146610       2.71489275       0.00000000
Si      -0.00012331      -2.71410948       2.71499634       0.00000000
Si      -2.71507059      -2.71485882       0.00217539       0.00000000
Si       2.71463795       2.71576196       0.00117402       0.00000000
Si      -2.71575477       0.00118863       2.71572148       0.00000000
