10
Lattice="16.28999089631971 0.0 0.0 0.0 16.28999089631971 0.0 0.0 0.0 34.5300574570662" Properties=species:S:1:pos:R:3:initial_magmoms:R:1 pbc="T T T"
Si       0.36587340       2.31870231      -0.21702153       0.00000000
Si       1.52427159      -1.18638441       1.40627191       0.00000000
Si      -1.79393462      -0.19332972       1.60281710       0.00000000
Si      -0.28334826      -0.99512352      -2.24535277       0.00000000
Si      -2.65491881      -2.12973831       0.51663901       0.00000000
Si      -2.57493491      -1.69805331      -1.83931360       0.00000000
Si      -1.13065143       3.14238987       1.39777751       0.00000000
Si       1.80411750      -2.38278717      -2.19331595       0.00000000
Si       1.49827275      -0.23074785       3.51208864       0.00000000
Si       1.06748370      -3.49699059       1.20941594       0.00000000
