10
Lattice="16.28999089631971 0.0 0.0 0.0 16.28999089631971 0.0 0.0 0.0 34.5300574570662" Properties=species:S:1:pos:R:3:initial_magmoms:R:1 pbc="T T T"
Si       0.27442134       1.79810649      -1.44498012       0.00000000
Si       0.78420060      -1.96162551      -1.04305003       0.00000000
Si       1.13647185       0.90860733       1.86058413       0.00000000
Si      -2.26505934      -0.48130434       0.58355830       0.00000000
Si      -1.83334176      -2.65072509       1.35920741       0.00000000
Si      -2.24324703       0.99238680       2.51006034       0.00000000
Si      -0.40565358       3.53180462      -0.06239585       0.00000000
Si      -0.24117345       0.27925947       3.61982248       0.00000000
Si       3.37075028       0.24469209       1.67674600       0.00000000
Si      -0.39473928      -2.07664920      -3.12956445       0.00000000
