10
Lattice="16.28999089631971 0.0 0.0 0.0 16.28999089631971 0.0 0.0 0.0 34.5300574570662" Properties=species:S:1:pos:R:3:initial_magmoms:R:1 pbc="T T T"
Si       1.37764530       0.62934786      -1.75923835       0.00000000
Si      -0.39667779      -2.31510222      -0.27320197       0.00000000
Si      -2.00207358       0.71312733      -1.10976214       0.00000000
Si       1.20389616       0.95123826       1.84704834       0.00000000
Si       0.24117345      -0.27925947      -3.61982248       0.00000000
Si       1.22554557       2.97972023      -1.80751140       0.00000000
Si      -2.02388589      -0.76056381      -3.03626418       0.00000000
Si       1.68013431      -3.37563009      -0.73524892       0.00000000
Si      -1.93303656      -3.10925601       1.39577476       0.00000000
Si       0.87006519       3.33359442       1.99425005       0.00000000
