10
Lattice="16.28999089631971 0.0 0.0 0.0 16.28999089631971 0.0 0.0 0.0 34.5300574570662" Properties=species:S:1:pos:R:3:initial_magmoms:R:1 pbc="T T T"
Si      -0.99691542       2.05094358      -0.27710387       0.00000000
Si       2.33067546       0.19051155      -0.32365041       0.00000000
Si      -1.21875264      -1.92827988      -0.78887413       0.00000000
Si       1.39421223       0.20421144       1.97906169       0.00000000
Si      -0.17523153      -1.03485483       3.23044894       0.00000000
Si      -2.72886822       1.07678529      -1.77149653       0.00000000
Si      -1.83283677      -2.19484944       1.98310724       0.00000000
Si      -3.48053769      -1.03412178      -0.92879000       0.00000000
Si       2.59548570       1.26934938      -2.54624786       0.00000000
Si       3.38498055      -1.89905562      -0.42123241       0.00000000
