10
Lattice="16.28999089631971 0.0 0.0 0.0 16.28999089631971 0.0 0.0 0.0 34.5300574570662" Properties=species:S:1:pos:R:3:initial_magmoms:R:1 pbc="T T T"
Si       0.10476913      -1.33589403       2.04231592       0.00000000
Si      -0.82302849      -1.93448637      -1.26804801       0.00000000
Si       2.05514477       0.76235571      -1.16100477       0.00000000
Si      -1.81838007       1.72121769      -0.07092478       0.00000000
Si       0.67258966       2.09215728      -2.68775211       0.00000000
Si       1.20466016       2.27822166       2.33896381       0.00000000
Si      -2.09441412      -0.63415341      -2.70802127       0.00000000
Si       2.51058059      -1.73455920       2.08889699       0.00000000
Si      -0.77174757       3.42282222      -1.34643128       0.00000000
Si      -3.52405710       0.64773927      -1.27094854       0.00000000
