10
Lattice="16.28999089631971 0.0 0.0 0.0 16.28999089631971 0.0 0.0 0.0 34.5300574570662" Properties=species:S:1:pos:R:3:initial_magmoms:R:1 pbc="T T T"
Si       0.29146068      -2.10535218       1.29453258       0.00000000
Si       0.42836184       0.66230253      -2.37853528       0.00000000
Si      -2.35461361       0.50946975       0.97695946       0.00000000
Si       2.67700086       0.26687907       0.89747122       0.00000000
Si       1.42014591      -0.47029230       2.72879944       0.00000000
Si      -1.74091556       1.59223347      -2.64793894       0.00000000
Si      -1.54173936       2.09666961       2.57846930       0.00000000
Si      -3.47334470       1.19483892      -1.00603379       0.00000000
Si      -0.12316869       0.79519635       4.02039696       0.00000000
Si      -0.65052486       3.87087867       1.35419683       0.00000000
