10
Lattice="16.28999089631971 0.0 0.0 0.0 16.28999089631971 0.0 0.0 0.0 34.5300574570662" Properties=species:S:1:pos:R:3:initial_magmoms:R:1 pbc="T T T"
Si      -1.75966209      -0.88899417      -1.28011451       0.00000000
Si      -1.23224076       1.44472752       1.40524291       0.00000000
Si       1.48854762      -1.28633985       1.36540211       0.00000000
Si       0.68945796       1.86645348      -1.36805889       0.00000000
Si      -2.54678512       2.74299558      -0.08552064       0.00000000
Si      -3.33265055       0.85849929      -1.48083412       0.00000000
Si      -2.65087659      -2.66320323      -0.05584204       0.00000000
Si      -2.59197195       0.09306477       2.76310019       0.00000000
Si      -0.02296890       1.07272908      -3.63689211       0.00000000
Si       2.65530258       2.71669212      -0.09232307       0.00000000
