10
Lattice="16.28999089631971 0.0 0.0 0.0 16.28999089631971 0.0 0.0 0.0 34.5300574570662" Properties=species:S:1:pos:R:3:initial_magmoms:R:1 pbc="T T T"
Si       1.35973119       1.35166275      -1.35785729       0.00000000
Si       1.35440436      -1.35586557       1.35934553       0.00000000
Si      -1.35951683       1.35749457       1.35941459       0.00000000
Si      -1.36759667      -1.36705680      -1.36815415       0.00000000
Si       2.59197195      -0.09306477      -2.76310019       0.00000000
Si       2.71074234      -2.71163340      -0.00058701       0.00000000
Si       2.70769611       2.71850193       0.00345301       0.00000000
Si       2.71113330       0.00174303       2.71765516       0.00000000
Si      -2.72079068      -2.70998811       0.00027624       0.00000000
Si      -0.00261454      -2.71340901       2.71737892       0.00000000
