10
Lattice="16.28999089631971 0.0 0.0 0.0 16.28999089631971 0.0 0.0 0.0 34.5300574570662" Properties=species:S:1:pos:R:3:initial_magmoms:R:1 pbc="T T T"
Si       1.35702560      -1.35679410      -1.35703202       0.00000000
Si      -1.35893510      -1.35557235       1.35858587       0.00000000
Si       1.35819685       1.35757602       1.35761903       0.00000000
Si      -1.35816947       1.35817875      -1.35737732       0.00000000
Si      -0.00019271      -2.71288773      -2.71465104       0.00000000
Si      -2.71494728      -0.00074934      -2.71282095       0.00000000
Si       2.71658574      -0.00218286       2.71230300       0.00000000
Si       0.00012331       2.71410948      -2.71499634       0.00000000
Si       2.71404450       0.00074934      -2.71506541       0.00000000
Si       2.71459836      -2.71467963       0.00048342       0.00000000
