10
Lattice="16.28999089631971 0.0 0.0 0.0 16.28999089631971 0.0 0.0 0.0 34.5300574570662" Properties=species:S:1:pos:R:3:initial_magmoms:R:1 pbc="T T T"
Si      -0.51746651       2.24554392      -0.14050288       0.00000000
Si      -1.11591061      -0.35666955       2.05298571       0.00000000
Si       2.36056761       0.06209748       0.23867189       0.00000000
Si      -1.20466016      -2.27822166      -2.33896381       0.00000000
Si       0.76528791      -0.18357201       3.41326356       0.00000000
Si       2.88113085      -0.70897338      -2.01741973       0.00000000
Si       2.52670932      -1.25330373       2.22850209       0.00000000
Si      -2.90368340       2.22415515       0.14733984       0.00000000
Si      -1.37847120      -2.75120181       2.09801293       0.00000000
Si      -0.84061287       2.76415236      -2.38885977       0.00000000
