10
Lattice="16.28999089631971 0.0 0.0 0.0 16.28999089631971 0.0 0.0 0.0 34.31052061344573" Properties=species:S:1:pos:R:3:initial_magmoms:R:1 pbc="T T T"
Si      -1.34407813      -1.35229154       1.36356947       0.00000000
Si       1.35769005      -1.35435060      -1.35427132       0.00000000
Si      -1.35846708       1.35773892      -1.35283027       0.00000000
Si       1.34736219       1.35586557       1.38600857       0.00000000
Si       2.47177944      -0.32936751       2.68843666       0.00000000
Si      -2.60989176       0.09427023       2.65676803       0.00000000
Si      -0.00004887      -2.71272442      -2.71193938       0.00000000
Si       2.71472850       0.00218286      -2.71231679       0.00000000
Si      -2.71580165       0.00322542      -2.71221386       0.00000000
Si      -2.71257677      -2.71570131       0.00545538       0.00000000
