10
Lattice="16.28999089631971 0.0 0.0 0.0 16.28999089631971 0.0 0.0 0.0 34.31052061344573" Properties=species:S:1:pos:R:3:initial_magmoms:R:1 pbc="T T T"
Si      -1.35780408       1.35171162       1.36298619       0.00000000
Si       1.36085031      -1.36215351       1.36034428       0.00000000
Si       1.36213722       1.35716877      -1.38589534       0.00000000
Si      -1.35000117      -1.38569256      -1.37277156       0.00000000
Si       2.55332718      -0.21325239      -2.71892157       0.00000000
Si      -2.71246419       2.70974376       0.00394571       0.00000000
Si       2.72134224       2.70510111       0.00123518       0.00000000
Si       0.00164529       2.71018359       2.71876717       0.00000000
Si      -2.70984150      -2.72104739       0.00233312       0.00000000
Si      -2.71331127      -0.00400734       2.71897304       0.00000000
