10
Lattice="16.28999089631971 0.0 0.0 0.0 16.28999089631971 0.0 0.0 0.0 34.31052061344573" Properties=species:S:1:pos:R:3:initial_magmoms:R:1 pbc="T T T"
Si      -1.35769005       1.35435060       1.35427132       0.00000000
Si       1.35703845       1.35653346      -1.35804548       0.00000000
Si      -1.35773892      -1.35837382      -1.35766806       0.00000000
Si       1.36067112      -1.36001042       1.35375666       0.00000000
Si      -2.70176818       0.00205906       2.71784079       0.00000000
Si       2.71208952       2.71337643       0.00017155       0.00000000
Si       2.71236645      -2.71538729      -0.00116656       0.00000000
Si      -2.71615713       2.71208952       0.00144104       0.00000000
Si      -2.71363870      -2.71507778      -0.00072052       0.00000000
Si       2.71461447      -0.00099043      -2.71492439       0.00000000
