10
Lattice="16.28999089631971 0.0 0.0 0.0 16.28999089631971 0.0 0.0 0.0 34.31052061344573" Properties=species:S:1:pos:R:3:initial_magmoms:R:1 pbc="T T T"
Si      -1.84081887       0.35904300      -1.41287372       0.00000000
Si       1.68290361      -1.09081980      -1.23267476       0.00000000
Si       0.55517949       2.27973500       0.30220723       0.00000000
Si      -0.40223268      -1.53374490       1.77203645       0.00000000
Si       1.15426053      -0.13658513       3.08177268       0.00000000
Si       0.44760033       2.11170365       2.65700820       0.00000000
Si      -0.90870507      -0.35992902      -3.43767591       0.00000000
Si       0.32747787      -2.33249247      -2.82674244       0.00000000
Si       0.56110905      -3.58985241       0.89193679       0.00000000
Si      -2.75301000      -1.14358311       2.33960140       0.00000000
