10
Lattice="16.28999089631971 0.0 0.0 0.0 16.28999089631971 0.0 0.0 0.0 34.31052061344573" Properties=species:S:1:pos:R:3:initial_magmoms:R:1 pbc="T T T"
Si      -1.23988321      -1.24769997      -1.53289199       0.00000000
Si      -1.76810424       0.33705639       1.52030002       0.00000000
Si       1.31476916       1.39084020      -1.40683506       0.00000000
Si       2.44679384       0.38664315       1.01442542       0.00000000
Si       1.41501782       0.34246467       3.08654185       0.00000000
Si      -2.15691396      -2.91136835      -0.21924435       0.00000000
Si       2.64171998       2.65403196       0.05657808       0.00000000
Si      -3.38286678      -1.32100497       1.10102522       0.00000000
Si      -0.93476907       0.34026552       3.67647727       0.00000000
Si       2.71737074       0.01389537      -2.80365145       0.00000000
