10
Lattice="16.28999089631971 0.0 0.0 0.0 16.28999089631971 0.0 0.0 0.0 34.31052061344573" Properties=species:S:1:pos:R:3:initial_magmoms:R:1 pbc="T T T"
Si       1.33819092      -1.29686319      -1.50534062       0.00000000
Si      -1.44637281      -1.36559070       1.36456448       0.00000000
Si      -1.35475785       1.43024571      -1.47830392       0.00000000
Si       1.98522972       1.05031404       1.10929406       0.00000000
Si       2.70412371      -2.64821643      -0.09713314       0.00000000
Si       3.47506425      -0.85232538       1.25559420       0.00000000
Si      -2.18090520       0.00801468       3.13673817       0.00000000
Si      -2.77332363      -2.62878246      -0.09884867       0.00000000
Si       0.00280188      -2.64451860      -2.87934050       0.00000000
Si       2.71008585       0.07014474      -2.87608100       0.00000000
