10
Lattice="16.28999089631971 0.0 0.0 0.0 16.28999089631971 0.0 0.0 0.0 34.31052061344573" Properties=species:S:1:pos:R:3:initial_magmoms:R:1 pbc="T T T"
Si       0.77094054       1.79589105       1.35272734       0.00000000
Si      -1.36593279       1.35135324      -1.40820748       0.00000000
Si       1.37551131      -1.34631963      -1.40731541       0.00000000
Si      -0.51882021      -1.85288976       1.43740575       0.00000000
Si       2.59041951       2.58771537      -0.07664975       0.00000000
Si      -2.70412371       2.64821643       0.09713314       0.00000000
Si       0.68641173      -1.24092333       3.53625009       0.00000000
Si       2.63691117      -2.82471858       0.01286645       0.00000000
Si       0.53882433       1.20484098       3.64055413       0.00000000
Si      -2.70132183       0.00369783      -2.78220736       0.00000000
