10
Lattice="16.28999089631971 0.0 0.0 0.0 16.28999089631971 0.0 0.0 0.0 34.31052061344573" Properties=species:S:1:pos:R:3:initial_magmoms:R:1 pbc="T T T"
Si      -0.36769788      -2.24355654       0.24713882       0.00000000
Si       0.28994571       1.40851485       1.91120000       0.00000000
Si       2.07386361       0.06243957      -1.23967411       0.00000000
Si      -1.24611984      -1.33501437      -2.58903902       0.00000000
Si      -1.94323410       0.95597865       2.37123572       0.00000000
Si      -2.69213427      -1.78667091       0.26010820       0.00000000
Si       0.31892562       3.28375449       0.48693518       0.00000000
Si       1.92627621       2.50820388      -1.13537007       0.00000000
Si       0.86863167      -0.54952686      -3.33851845       0.00000000
Si      -2.95797078       0.31859982      -2.35637925       0.00000000
