10
Lattice="16.28999089631971 0.0 0.0 0.0 16.28999089631971 0.0 0.0 0.0 34.31052061344573" Properties=species:S:1:pos:R:3:initial_magmoms:R:1 pbc="T T T"
Si       0.46301067       0.92155788      -2.08076269       0.00000000
Si       1.15878915      -1.99288602       0.43896905       0.00000000
Si       0.82909584       1.26333837       1.80751355       0.00000000
Si      -2.34730755       0.18956673       0.22123436       0.00000000
Si      -0.37910088      -3.00488598       1.92900717       0.00000000
Si       3.13470099       0.82187937       1.61544314       0.00000000
Si      -0.31491828       3.15538929      -1.96434702       0.00000000
Si      -0.22193496       3.32752572       1.70863057       0.00000000
Si      -0.35934111       0.57238173       3.73401605       0.00000000
Si       2.97559656      -1.51405776       1.90066666       0.00000000
