10
Lattice="16.28999089631971 0.0 0.0 0.0 16.28999089631971 0.0 0.0 0.0 34.31052061344573" Properties=species:S:1:pos:R:3:initial_magmoms:R:1 pbc="T T T"
Si       1.35672894      -1.35783666      -1.35735926       0.00000000
Si       1.35744570       1.35703845       1.35773668       0.00000000
Si      -1.35754344       1.35747828      -1.35766806       0.00000000
Si      -1.35860229      -1.36001952       1.35890324       0.00000000
Si      -0.00100998       2.71448415      -2.71399801       0.00000000
Si       2.71482624       2.71443528      -0.00027448       0.00000000
Si      -0.00272043      -2.71630863      -2.71314024       0.00000000
Si      -2.71560816      -0.00200367      -2.71413525       0.00000000
Si       0.00620649      -2.71573848       2.71413525       0.00000000
Si       2.71464705      -2.71549413       0.00017155       0.00000000
