10
Lattice="16.28999089631971 0.0 0.0 0.0 16.28999089631971 0.0 0.0 0.0 34.31052061344573" Properties=species:S:1:pos:R:3:initial_magmoms:R:1 pbc="T T T"
Si      -0.92406654      -1.90448019      -0.83971615       0.00000000
Si      -1.03205295       2.02163787      -0.49187590       0.00000000
Si       1.99249506       0.55035765      -1.19438420       0.00000000
Si      -0.65567250      -0.17586684       2.29263027       0.00000000
Si       2.21138379       2.47445100       0.16489645       0.00000000
Si       0.11909619       3.30830352       1.20721634       0.00000000
Si       2.51833626      -2.33088723       0.83196197       0.00000000
Si      -0.25948341      -3.64404042       0.66709983       0.00000000
Si      -3.21398442       1.82998602       0.39011084       0.00000000
Si      -0.98837946       2.04929829       2.97156723       0.00000000
