10
Lattice="16.28999089631971 0.0 0.0 0.0 16.28999089631971 0.0 0.0 0.0 34.31052061344573" Properties=species:S:1:pos:R:3:initial_magmoms:R:1 pbc="T T T"
Si       0.87754230       0.99914715      -1.88423191       0.00000000
Si       1.05103080      -2.06418735       0.09888298       0.00000000
Si       0.44450523       1.46166912       1.79516175       0.00000000
Si      -2.77781967      -1.31315319      -0.16486214       0.00000000
Si      -1.98990495      -1.32154254       2.09462414       0.00000000
Si      -1.65192003       0.96396075       2.74120627       0.00000000
Si      -0.13740615      -2.75514399       2.02538547       0.00000000
Si      -2.51833626       2.33088723      -0.83196197       0.00000000
Si      -0.52584120       2.88124488      -2.02634617       0.00000000
Si      -0.09298332      -0.17213643      -3.67297759       0.00000000
