10
Lattice="16.28999089631971 0.0 0.0 0.0 16.28999089631971 0.0 0.0 0.0 34.31052061344573" Properties=species:S:1:pos:R:3:initial_magmoms:R:1 pbc="T T T"
Si      -1.34578206      -1.33576371       1.36767644       0.00000000
Si      -1.39199679       1.10959335      -1.54153138       0.00000000
Si       1.36337526       1.38375405       1.36441694       0.00000000
Si       1.26255645      -1.42288263      -1.46397240       0.00000000
Si       0.54496566       2.02274559      -2.70716133       0.00000000
Si       2.36946195       0.25150131      -2.78981542       0.00000000
Si       2.71329498      -2.68473861      -0.01208417       0.00000000
Si      -2.69105913       2.72028080      -0.02040791       0.00000000
Si      -2.71151937      -2.70746316      -0.01571423       0.00000000
Si       0.00658116      -2.69320941       2.72692279       0.00000000
