10
Lattice="16.28999089631971 0.0 0.0 0.0 16.28999089631971 0.0 0.0 0.0 34.31052061344573" Properties=species:S:1:pos:R:3:initial_magmoms:R:1 pbc="T T T"
Si       1.36632375       1.35467640      -1.34756361       0.00000000
Si      -1.35690813       1.35326214       1.36175101       0.00000000
Si       1.35884664      -1.36213722       1.36140791       0.00000000
Si      -1.36337526      -1.38375405      -1.36441694       0.00000000
Si       2.70659979      -0.02176344      -2.68912630       0.00000000
Si       0.00192222       2.60274519      -2.79074039       0.00000000
Si      -2.71054197       2.70947565       0.00271053       0.00000000
Si       2.71893132       2.70825390       0.00583279       0.00000000
Si      -2.70915732      -2.71951776       0.00325950       0.00000000
Si       0.00184077       2.71038951       2.71911028       0.00000000
