10
Lattice="16.28999089631971 0.0 0.0 0.0 16.28999089631971 0.0 0.0 0.0 34.31052061344573" Properties=species:S:1:pos:R:3:initial_magmoms:R:1 pbc="T T T"
Si      -1.35760860       1.35679410       1.35584960       0.00000000
Si       1.35863487       1.35661491      -1.35746220       0.00000000
Si      -1.35689184      -1.35894438      -1.35742789       0.00000000
Si       1.35703845      -1.35966114       1.36308912       0.00000000
Si       0.01557324       2.70145215       2.70408226       0.00000000
Si      -2.70741103      -0.00892692       2.71708596       0.00000000
Si      -2.71200970       2.71394658      -0.00048035       0.00000000
Si       0.00131949       2.71282257      -2.71454698       0.00000000
Si       2.71399545       2.71363707      -0.00092638       0.00000000
Si      -2.71387328      -0.00136836      -2.71451267       0.00000000
