10
Lattice="16.28999089631971 0.0 0.0 0.0 16.28999089631971 0.0 0.0 0.0 34.31052061344573" Properties=species:S:1:pos:R:3:initial_magmoms:R:1 pbc="T T T"
Si      -1.23618294       1.97256345      -0.61093347       0.00000000
Si      -1.15114914      -1.28666565      -1.69909224       0.00000000
Si       1.35542574       1.24167267       1.59406768       0.00000000
Si      -1.10747565      -1.25900523       1.76435089       0.00000000
Si       2.09228760      -0.83385252      -1.04231989       0.00000000
Si      -0.11909619      -3.30830352      -1.20721634       0.00000000
Si       2.26463580      -0.61292754       2.67721711       0.00000000
Si      -0.32747787       2.33249247       2.82674244       0.00000000
Si      -0.77476869      -3.48417036       1.08541393       0.00000000
Si       3.10818087      -1.88540460       0.84674981       0.00000000
