10
Lattice="16.28999089631971 0.0 0.0 0.0 16.28999089631971 0.0 0.0 0.0 34.31052061344573" Properties=species:S:1:pos:R:3:initial_magmoms:R:1 pbc="T T T"
Si       1.35638685       1.35780408       1.35831996       0.00000000
Si       1.35878148      -1.36011563      -1.35488891       0.00000000
Si      -1.35830907      -1.35798001       1.35838858       0.00000000
Si      -1.36085031       1.36215351      -1.36034428       0.00000000
Si       0.00617391      -2.71369313      -2.70828530       0.00000000
Si       2.71277370      -2.71403217       0.00188708       0.00000000
Si       2.71381626       2.71593396       0.00329381       0.00000000
Si       2.71420722       0.00014661       2.71619388       0.00000000
Si      -0.00128691       2.71467963       2.71595371       0.00000000
Si      -2.71588509      -0.00045612       2.71526750       0.00000000
