10
Lattice="16.28999089631971 0.0 0.0 0.0 16.28999089631971 0.0 0.0 0.0 34.31052061344573" Properties=species:S:1:pos:R:3:initial_magmoms:R:1 pbc="T T T"
Si      -1.35741312      -1.35658955      -1.35835427       0.00000000
Si       1.35866745       1.35862510      -1.35825134       0.00000000
Si       1.36207206      -1.35777684       1.36133929       0.00000000
Si      -1.35907470       1.36303969       1.35914341       0.00000000
Si      -2.71384884       0.00049847      -2.71605664       0.00000000
Si      -2.71609686      -2.71389838      -0.00229881       0.00000000
Si       0.00118917      -2.71397983      -2.71615957       0.00000000
Si       2.71484253      -2.71552738      -0.00123518       0.00000000
Si      -2.71637379       2.71486534      -0.00096070       0.00000000
Si       2.71551042       0.00100021      -2.71595371       0.00000000
