10
Lattice="16.28999089631971 0.0 0.0 0.0 16.28999089631971 0.0 0.0 0.0 34.31052061344573" Properties=species:S:1:pos:R:3:initial_magmoms:R:1 pbc="T T T"
Si       1.44164871      -1.24783844      -1.42103963       0.00000000
Si      -1.63556487      -0.98065148       1.45185049       0.00000000
Si      -1.26139986       1.47839895      -1.42018186       0.00000000
Si       1.59420456       1.19399184       1.41012887       0.00000000
Si      -3.15573138       0.97182882       1.42453930       0.00000000
Si       0.08910630      -2.60227419      -2.78920671       0.00000000
Si      -2.63204046       0.11854233      -2.79140259       0.00000000
Si      -2.77832466      -2.65397399       0.11751360       0.00000000
Si       0.50417550       0.91766457       3.71682646       0.00000000
Si      -2.63691117       2.82471858      -0.01286645       0.00000000
