10
Lattice="16.28999089631971 0.0 0.0 0.0 16.28999089631971 0.0 0.0 0.0 34.31052061344573" Properties=species:S:1:pos:R:3:initial_magmoms:R:1 pbc="T T T"
Si       1.96213050      -0.63551265       1.12754727       0.00000000
Si      -1.74029328      -1.19213382       1.10898527       0.00000000
Si      -0.29755314       2.25760666       0.73469159       0.00000000
Si      -0.14836932      -0.58505258      -2.40928610       0.00000000
Si      -0.41070348       1.55255917       3.02334183       0.00000000
Si       1.41475392       0.07943981       3.30640379       0.00000000
Si      -2.03102091      -0.07190895       3.12562155       0.00000000
Si       2.07142011      -1.37669952      -2.78282495       0.00000000
Si       3.65878287       0.77475403       0.29404133       0.00000000
Si       1.19759193       2.78473477      -2.34505677       0.00000000
