10
Lattice="16.28999089631971 0.0 0.0 0.0 16.28999089631971 0.0 0.0 0.0 34.31052061344573" Properties=species:S:1:pos:R:3:initial_magmoms:R:1 pbc="T T T"
Si      -1.62031743      -1.62446812       0.10227972       0.00000000
Si      -0.63338778       1.19369862       1.92392921       0.00000000
Si       1.82545740      -1.47311936       0.28306195       0.00000000
Si       0.11315034       0.70504749      -2.28865025       0.00000000
Si       0.41070348      -1.55255917      -3.02334183       0.00000000
Si      -1.32958980      -2.74469300      -1.91435657       0.00000000
Si       3.61323603      -0.00588069       0.60053738       0.00000000
Si       2.37283398      -2.18807182      -1.89579457       0.00000000
Si      -1.10529279      -2.99547755       2.00236310       0.00000000
Si      -3.72449673      -0.68891713       0.11483738       0.00000000
