10
Lattice="16.28999089631971 0.0 0.0 0.0 16.28999089631971 0.0 0.0 0.0 34.31052061344573" Properties=species:S:1:pos:R:3:initial_magmoms:R:1 pbc="T T T"
Si      -1.96429381      -1.23859779       0.10866148       0.00000000
Si       0.93211380      -0.71897202      -2.02480220       0.00000000
Si       1.84081887      -0.35904300       1.41287372       0.00000000
Si      -0.71332281       2.25302429       0.18918832       0.00000000
Si       2.39599836       1.92069200       1.71508095       0.00000000
Si      -3.52614059       0.25299347      -0.86987512       0.00000000
Si      -2.97988865       1.97272226       0.69506292       0.00000000
Si       2.36584557       1.03873511      -2.60688050       0.00000000
Si      -1.27966095      -3.47226630      -0.02556135       0.00000000
Si       2.16829674      -2.69153547      -1.41386872       0.00000000
