10
Lattice="16.28999089631971 0.0 0.0 0.0 16.28999089631971 0.0 0.0 0.0 34.31052061344573" Properties=species:S:1:pos:R:3:initial_magmoms:R:1 pbc="T T T"
Si       1.72126656      -0.82396449      -1.34350124       0.00000000
Si      -1.32023934      -1.38108249       1.36653047       0.00000000
Si       1.38039831       1.34817669       1.37617173       0.00000000
Si      -1.44876744       1.33538904      -1.51362662       0.00000000
Si       1.50135156       0.54001350      -3.27024532       0.00000000
Si       0.33233229       2.50150869      -2.63686654       0.00000000
Si      -2.69096139       2.70479160      -0.01158324       0.00000000
Si      -2.68239285      -0.01814706       2.72419853       0.00000000
Si      -2.67944436      -2.72901483      -0.02060005       0.00000000
Si       0.03368772       2.69630451       2.72948235       0.00000000
