10
Lattice="16.28999089631971 0.0 0.0 0.0 16.28999089631971 0.0 0.0 0.0 34.31052061344573" Properties=species:S:1:pos:R:3:initial_magmoms:R:1 pbc="T T T"
Si       1.34982198       1.33227765       1.37540661       0.00000000
Si       1.35303111      -1.35404109      -1.35334493       0.00000000
Si      -1.36049193       1.35755973      -1.35197251       0.00000000
Si      -1.35003375      -1.34899119       1.37959249       0.00000000
Si      -0.13512555       2.58504381       2.71025816       0.00000000
Si       2.71151937       0.00136836      -2.70936608       0.00000000
Si       2.70883152      -2.71205694       0.00717090       0.00000000
Si      -0.00293220      -2.71326240      -2.70902298       0.00000000
Si      -0.00304623       2.71687878      -2.70943471       0.00000000
Si      -2.71842633       0.00127062      -2.70926315       0.00000000
