10
Lattice="16.28999089631971 0.0 0.0 0.0 16.28999089631971 0.0 0.0 0.0 34.31052061344573" Properties=species:S:1:pos:R:3:initial_magmoms:R:1 pbc="T T T"
Si       0.82073907       2.22620769      -0.70508159       0.00000000
Si      -1.28529729       0.52070985       2.17467063       0.00000000
Si       2.36890809      -1.15004142       0.26110321       0.00000000
Si      -1.81012851      -1.25789751      -1.73439779       0.00000000
Si      -1.05733503       0.55205181      -2.96779307       0.00000000
Si      -0.32029398      -3.16053693      -1.58809764       0.00000000
Si      -0.03587058       2.42390313       2.68624078       0.00000000
Si       1.59861915      -3.04842915       1.44371889       0.00000000
Si      -0.55241019      -3.75158700       0.69972915       0.00000000
Si      -0.93418263      -1.34219826       3.49596952       0.00000000
