10
Lattice="16.28999089631971 0.0 0.0 0.0 16.28999089631971 0.0 0.0 0.0 34.31052061344573" Properties=species:S:1:pos:R:3:initial_magmoms:R:1 pbc="T T T"
Si      -2.24867160       0.49306572      -0.26940636       0.00000000
Si       0.11850975      -1.47315357       1.83682096       0.00000000
Si       0.45467019      -1.08292662      -2.12080309       0.00000000
Si       0.87941565       2.31329403       0.47152975       0.00000000
Si      -1.65960891       1.91915748      -2.16063762       0.00000000
Si       1.31230611       0.14576292       3.10164333       0.00000000
Si       0.26192691       0.93745692      -3.22999422       0.00000000
Si      -2.92824153      -1.73260440      -1.02307168       0.00000000
Si       2.78029575       1.56638124       1.65273870       0.00000000
Si       1.28752902      -3.43464876       1.20344218       0.00000000
