10
Lattice="16.28999089631971 0.0 0.0 0.0 16.28999089631971 0.0 0.0 0.0 34.31052061344573" Properties=species:S:1:pos:R:3:initial_magmoms:R:1 pbc="T T T"
Si      -1.35687555       1.35423657      -1.36161377       0.00000000
Si       1.34146521       1.35119034       1.38847892       0.00000000
Si       1.36034532      -1.36246302      -1.35962376       0.00000000
Si      -1.37727063      -1.34579835       1.37955818       0.00000000
Si       0.02917539      -2.64416022       2.75139650       0.00000000
Si      -2.70857088       2.70961344      -0.00669056       0.00000000
Si       0.00180819       2.71154540      -2.71766924       0.00000000
Si      -2.71223613      -0.00278559      -2.71814958       0.00000000
Si       2.72129337       2.71035811       0.00202432       0.00000000
Si      -2.71383255      -2.71906164       0.00240174       0.00000000
