10
Lattice="16.28999089631971 0.0 0.0 0.0 16.28999089631971 0.0 0.0 0.0 34.31052061344573" Properties=species:S:1:pos:R:3:initial_magmoms:R:1 pbc="T T T"
Si      -1.34146521      -1.35119034      -1.38847892       0.00000000
Si       1.37982816       1.35916777      -1.38645460       0.00000000
Si       1.28591631      -1.41555213       1.46035950       0.00000000
Si      -1.48760280       1.30746798       1.52026571       0.00000000
Si      -2.69550630       2.70089733      -0.02319392       0.00000000
Si      -2.71873584      -2.69698869      -0.00892074       0.00000000
Si       2.71785618      -2.70945054      -0.01595440       0.00000000
Si       2.73237057       2.71360353      -0.01828752       0.00000000
Si      -2.69834076       0.00304623      -2.75009270       0.00000000
Si       0.01888011      -2.71365336      -2.74810268       0.00000000
