10
Lattice="16.28999089631971 0.0 0.0 0.0 16.28999089631971 0.0 0.0 0.0 34.31052061344573" Properties=species:S:1:pos:R:3:initial_magmoms:R:1 pbc="T T T"
Si      -0.68983263      -0.56164662       2.25132038       0.00000000
Si       2.10261546      -1.26294741      -0.06525865       0.00000000
Si      -2.15117595      -0.47967534      -1.19122763       0.00000000
Si      -0.04823469       2.55919158      -0.13504628       0.00000000
Si       0.25927164       1.68624306      -2.29328217       0.00000000
Si      -3.37730796       1.15255008       0.31857336       0.00000000
Si      -1.43104392       0.42596721      -3.35649718       0.00000000
Si      -3.00778560      -0.28197990       2.20009474       0.00000000
Si      -0.60300693      -3.85592445      -0.22504283       0.00000000
Si       1.58017887      -3.60996174       0.64263641       0.00000000
