10
Lattice="16.28999089631971 0.0 0.0 0.0 16.28999089631971 0.0 0.0 0.0 34.31052061344573" Properties=species:S:1:pos:R:3:initial_magmoms:R:1 pbc="T T T"
Si       0.72013203       0.90564255      -2.16526954       0.00000000
Si      -0.82073907      -2.22620769       0.70508159       0.00000000
Si       2.15117595       0.47967534       1.19122763       0.00000000
Si      -1.22613201       1.63222542       1.50980099       0.00000000
Si      -1.87807410      -1.67415588      -2.26271148       0.00000000
Si       2.41044759       2.16591840      -1.10205454       0.00000000
Si      -0.85660965       0.19769544       3.39132237       0.00000000
Si       1.46134332      -0.08197128       3.44254801       0.00000000
Si       1.54816902      -3.37624911       0.96618480       0.00000000
Si       2.10294126       3.03886692       1.05618135       0.00000000
