10
Lattice="16.28999089631971 0.0 0.0 0.0 16.28999089631971 0.0 0.0 0.0 34.31052061344573" Properties=species:S:1:pos:R:3:initial_magmoms:R:1 pbc="T T T"
Si       0.58161816      -0.77538771      -2.10381937       0.00000000
Si      -0.27054432       2.25034947      -0.54715018       0.00000000
Si      -2.02817016      -1.13712345       0.34959009       0.00000000
Si       1.97739423      -0.23043834       1.25940267       0.00000000
Si      -1.48090761      -1.89959319       2.53445095       0.00000000
Si       3.53553273       0.46641528      -0.35734427       0.00000000
Si       2.89957113      -1.05505443      -2.05259373       0.00000000
Si      -0.56127195       3.37057434       1.46948611       0.00000000
Si      -2.33947206       2.41531830      -1.68101059       0.00000000
Si      -0.66780855      -2.67858099      -2.61538952       0.00000000
