10
Lattice="16.28999089631971 0.0 0.0 0.0 16.28999089631971 0.0 0.0 0.0 34.31052061344573" Properties=species:S:1:pos:R:3:initial_magmoms:R:1 pbc="T T T"
Si      -0.58161816       0.77538771       2.10381937       0.00000000
Si      -1.24942671      -1.90319328      -0.51157015       0.00000000
Si       2.31795297      -0.27966672       0.05122564       0.00000000
Si      -0.36952236       1.43452998      -1.88152138       0.00000000
Si       0.85660965      -0.19769544      -3.39132237       0.00000000
Si      -0.85216248       3.02573718       1.55666919       0.00000000
Si      -2.60978832      -0.36173574       2.45340946       0.00000000
Si       0.03587058      -2.42390313      -2.68624078       0.00000000
Si       2.95391457       1.24180299       1.74647510       0.00000000
Si       1.39577607       0.54494937       3.36322204       0.00000000
