10
Lattice="16.28999089631971 0.0 0.0 0.0 16.28999089631971 0.0 0.0 0.0 34.31052061344573" Properties=species:S:1:pos:R:3:initial_magmoms:R:1 pbc="T T T"
Si       1.46569423      -1.27425267       1.28853232       0.00000000
Si       1.35819504       1.34943102      -1.36271171       0.00000000
Si      -1.35782037      -1.36453185      -1.36343223       0.00000000
Si      -1.35281934       1.30852683       1.47950479       0.00000000
Si      -2.71682991       2.67980274       0.00480348       0.00000000
Si       2.71279066       2.70791928       0.00195570       0.00000000
Si      -2.56108122      -0.28587321       2.83930010       0.00000000
Si       0.00171045       2.70648576      -2.72243840       0.00000000
Si      -2.71362078      -0.00651600      -2.72394806       0.00000000
Si       2.71711891      -0.01078398      -2.72106598       0.00000000
