10
Lattice="16.28999089631971 0.0 0.0 0.0 16.28999089631971 0.0 0.0 0.0 34.31052061344573" Properties=species:S:1:pos:R:3:initial_magmoms:R:1 pbc="T T T"
Si       1.21964859      -1.42553271      -1.36971106       0.00000000
Si      -1.25356437      -1.57867500       1.18755640       0.00000000
Si      -1.49742567       1.29020482      -1.35430563       0.00000000
Si       1.76487489       1.07998725       1.23974273       0.00000000
Si       0.53892207       2.67035063       2.56001231       0.00000000
Si       2.57922063      -0.06631591      -2.72521755       0.00000000
Si      -1.56107070      -0.70572648       3.34579229       0.00000000
Si      -0.14160897       2.65337645      -2.72586945       0.00000000
Si       2.55821418      -2.82743382       0.00953833       0.00000000
Si       2.68190563       2.74365563      -0.07390490       0.00000000
