10
Lattice="16.28999089631971 0.0 0.0 0.0 16.28999089631971 0.0 0.0 0.0 34.31052061344573" Properties=species:S:1:pos:R:3:initial_magmoms:R:1 pbc="T T T"
Si       1.88379189      -1.06168446       1.08314943       0.00000000
Si       1.20826188       1.59440004      -1.35979531       0.00000000
Si      -1.59420456      -1.19399184      -1.41012887       0.00000000
Si      -1.09002906      -0.27632727       2.30669759       0.00000000
Si      -0.18438651       1.67505183       3.28959162       0.00000000
Si      -0.15255585      -2.44183028      -2.83116850       0.00000000
Si       2.56108122       0.28587321      -2.83930010       0.00000000
Si       3.49855443       0.59637690       1.50242423       0.00000000
Si      -3.22976943      -2.17464332       0.04172162       0.00000000
Si       2.10062808       3.40638561      -0.05225495       0.00000000
