10
Lattice="16.28999089631971 0.0 0.0 0.0 16.28999089631971 0.0 0.0 0.0 34.31052061344573" Properties=species:S:1:pos:R:3:initial_magmoms:R:1 pbc="T T T"
Si       1.59378658       0.71210758       1.53807288       0.00000000
Si      -1.84269222       1.49106117       0.17491513       0.00000000
Si      -0.33286986      -2.21293364       0.81775741       0.00000000
Si       0.73280565       0.19950037      -2.28858162       0.00000000
Si       1.97160706      -2.77845728       0.81665947       0.00000000
Si      -1.38644190       0.71913671      -3.15492275       0.00000000
Si       3.34308986      -0.77811176       0.98069816       0.00000000
Si      -3.63047085       0.02382250      -0.14256029       0.00000000
Si       1.63255026       3.02741994       1.50365941       0.00000000
Si       0.72627336       0.30478101       3.68721647       0.00000000
