10
Lattice="16.28999089631971 0.0 0.0 0.0 16.28999089631971 0.0 0.0 0.0 34.31052061344573" Properties=species:S:1:pos:R:3:initial_magmoms:R:1 pbc="T T T"
Si       0.21318723      -0.96519879      -2.15730950       0.00000000
Si       0.46674108      -1.66561015       1.63901449       0.00000000
Si      -2.21662917       0.71320878       0.62777995       0.00000000
Si       1.84427235       1.56452418       0.32900377       0.00000000
Si      -0.31332186      -0.30411801       3.46985920       0.00000000
Si      -2.05752474       3.04914591       0.34255643       0.00000000
Si       2.78215281      -2.15147894       1.35499184       0.00000000
Si      -1.57459140      -2.43243746      -2.47478492       0.00000000
Si       3.68842971       0.57115998      -0.82856523       0.00000000
Si      -2.60183880      -0.09580149       2.94319241       0.00000000
