10
Lattice="16.28999089631971 0.0 0.0 0.0 16.28999089631971 0.0 0.0 0.0 34.31052061344573" Properties=species:S:1:pos:R:3:initial_magmoms:R:1 pbc="T T T"
Si      -1.35303111       1.35576783       1.36535362       0.00000000
Si       1.36353816      -1.36125756       1.36226567       0.00000000
Si      -1.34003169      -1.37305152      -1.37667953       0.00000000
Si       1.36472733       1.37028222      -1.39026307       0.00000000
Si      -2.70635544       2.70708849       0.00295071       0.00000000
Si      -2.70806589      -2.72028176       0.00717090       0.00000000
Si      -2.71046052      -0.00236205       2.72037977       0.00000000
Si       2.73004110       2.70137070       0.00686211       0.00000000
Si       2.71785618      -2.71547621       0.00898936       0.00000000
Si       0.00417024       2.71249677       2.72092874       0.00000000
