10
Lattice="16.28999089631971 0.0 0.0 0.0 16.28999089631971 0.0 0.0 0.0 34.31052061344573" Properties=species:S:1:pos:R:3:initial_magmoms:R:1 pbc="T T T"
Si       2.05703508      -0.97666695       0.67718712       0.00000000
Si       0.94956039       0.81368550      -2.05667669       0.00000000
Si      -1.46370537      -1.91990682      -0.44665461       0.00000000
Si      -0.70195239       1.94373909       1.39578707       0.00000000
Si       2.26782605      -2.50934418      -1.13893837       0.00000000
Si       3.45555602       0.91471608       0.79164708       0.00000000
Si      -3.36411306      -0.80076753      -1.31278987       0.00000000
Si       1.88276955      -1.12466160      -3.03380655       0.00000000
Si       2.97279861       1.89431523      -1.31546610       0.00000000
Si       0.38713185       1.58711841       3.46985920       0.00000000
