10
Lattice="16.28999089631971 0.0 0.0 0.0 16.28999089631971 0.0 0.0 0.0 34.31052061344573" Properties=species:S:1:pos:R:3:initial_magmoms:R:1 pbc="T T T"
Si       1.35449079       1.35687015      -1.35849151       0.00000000
Si       1.35750805      -1.35767376       1.35729064       0.00000000
Si      -1.35821133       1.35755460       1.35739358       0.00000000
Si      -1.35883035      -1.35881406      -1.35825134       0.00000000
Si      -0.00190593       2.71695276      -2.71166489       0.00000000
Si       2.71409223       2.71505823       0.00024017       0.00000000
Si      -0.00022806       2.71418020       2.71567922       0.00000000
Si       2.71495560      -2.71511946      -0.00003431       0.00000000
Si      -2.71555929       2.71478456      -0.00010293       0.00000000
Si       2.71681918       0.00019548       2.71399801       0.00000000
