10
Lattice="16.28999089631971 0.0 0.0 0.0 16.28999089631971 0.0 0.0 0.0 34.31052061344573" Properties=species:S:1:pos:R:3:initial_magmoms:R:1 pbc="T T T"
Si      -0.11600109      -0.72560547       2.23478270       0.00000000
Si       1.39852094       1.89138303       0.11445996       0.00000000
Si      -2.05703508       0.97666695      -0.67718712       0.00000000
Si       0.21079097      -1.53267723      -1.81612549       0.00000000
Si      -1.10747469       1.79035245      -2.73386381       0.00000000
Si       0.58278127       2.74765059       2.14283045       0.00000000
Si       0.91576353       2.87098218      -1.99265322       0.00000000
Si      -0.17426553      -0.14799465      -3.71099367       0.00000000
Si       2.34971032      -2.43320472      -1.68842166       0.00000000
Si      -0.15476477      -3.04091783       2.26919617       0.00000000
