10
Lattice="16.28999089631971 0.0 0.0 0.0 16.28999089631971 0.0 0.0 0.0 34.31052061344573" Properties=species:S:1:pos:R:3:initial_magmoms:R:1 pbc="T T T"
Si      -1.35624942       1.35700587      -1.35612409       0.00000000
Si       1.35733456       1.35451350       1.35938359       0.00000000
Si       1.35712605      -1.35779105      -1.35653581       0.00000000
Si      -1.35719424      -1.35866908       1.35890324       0.00000000
Si      -0.00063008       2.71513575      -2.71183644       0.00000000
Si       2.71580165      -0.00322542       2.71221386       0.00000000
Si      -2.71319013      -0.00167787      -2.71516457       0.00000000
Si       2.71405862      -0.00060273      -2.71461560       0.00000000
Si       2.71464506       2.71441899      -0.00003431       0.00000000
Si      -2.71491687       2.71419093       0.00048035       0.00000000
