10
Lattice="16.28999089631971 0.0 0.0 0.0 16.28999089631971 0.0 0.0 0.0 34.31052061344573" Properties=species:S:1:pos:R:3:initial_magmoms:R:1 pbc="T T T"
Si      -1.30450320       1.33586145       1.35289889       0.00000000
Si       1.34672688       1.36756179      -1.35008543       0.00000000
Si      -1.37318184      -1.34465805      -1.34823266       0.00000000
Si       1.17198405      -1.32730920       1.57825052       0.00000000
Si      -2.33425926      -0.35637633       2.60897345       0.00000000
Si       0.32029398       1.93949622       3.02691013       0.00000000
Si      -0.69089148      -2.13294744       2.90370098       0.00000000
Si       2.16319797       0.35948772       2.94405018       0.00000000
Si       2.67802713      -2.68785000       0.03616331       0.00000000
Si       2.69842221       0.01218492      -2.70500865       0.00000000
