10
Lattice="16.28999089631971 0.0 0.0 0.0 16.28999089631971 0.0 0.0 0.0 34.31052061344573" Properties=species:S:1:pos:R:3:initial_magmoms:R:1 pbc="T T T"
Si      -1.36100736      -1.35239580      -1.36154515       0.00000000
Si      -1.38223323       1.31548266       1.37763679       0.00000000
Si       1.34980243       1.36572102      -1.36123636       0.00000000
Si       1.32927703      -1.26250758       1.54452326       0.00000000
Si       0.38872501       2.35400274       2.59596975       0.00000000
Si      -2.31651360      -0.51520383       2.63779430       0.00000000
Si      -0.57484641      -2.25743562       2.70658693       0.00000000
Si       2.03209279       0.57743163       2.89069729       0.00000000
Si       2.71467637      -2.70585045       0.04079523       0.00000000
Si       2.70741103       0.00892692      -2.71708596       0.00000000
