10
Lattice="16.28999089631971 0.0 0.0 0.0 16.28999089631971 0.0 0.0 0.0 34.31052061344573" Properties=species:S:1:pos:R:3:initial_magmoms:R:1 pbc="T T T"
Si      -0.75795156      -1.88348238       1.13434076       0.00000000
Si      -1.07330967       0.13090644      -2.07129298       0.00000000
Si       2.28123205      -0.53926416      -0.40692300       0.00000000
Si      -0.67622463       1.80831936       1.40415884       0.00000000
Si       2.43777895       0.86192216       2.37236796       0.00000000
Si       0.76712542       0.92066472      -3.29950737       0.00000000
Si       2.71174417      -1.44216999       1.73703970       0.00000000
Si      -2.79547218       2.32795570       0.53781771       0.00000000
Si      -2.78833716       1.79728452      -1.78174633       0.00000000
Si       2.90634451       1.31773624      -2.04013901       0.00000000
