10
Lattice="10.86 0.0 0.0 0.0 10.86 0.0 0.0 0.0 10.86" Properties=species:S:1:pos:R:3:initial_magmoms:R:1 pbc="T T T"
Si       1.36524318       1.33555194      -1.35352524       0.00000000
Si      -1.35801042       1.29599982       1.47134538       0.00000000
Si      -1.42926288      -1.52493948      -1.42928460       0.00000000
Si       2.67916200       2.65788726      -0.00725448       0.00000000
Si      -0.03583800       2.65788726       2.70774552       0.00000000
Si      -0.03583800       2.65788726      -2.72225448       0.00000000
Si       2.67916200      -0.05711274      -2.72225448       0.00000000
Si      -2.75083800       2.65788726      -0.00725448       0.00000000
Si      -2.75083800      -0.05711274       2.70774552       0.00000000
Si      -2.75083800      -0.05711274      -2.72225448       0.00000000
