10
Lattice="10.86 0.0 0.0 0.0 10.86 0.0 0.0 0.0 10.86" Properties=species:S:1:pos:R:3:initial_magmoms:R:1 pbc="T T T"
Si       1.31813250       1.41761010       1.29585864       0.00000000
Si       1.31813250      -1.29738990      -1.41914136       0.00000000
Si      -1.39686750       1.41761010      -1.41914136       0.00000000
Si       0.05135694      -2.63523330       2.65041558       0.00000000
Si       2.67563250       0.06011010       2.65335864       0.00000000
Si       2.67563250      -2.65488990      -0.06164136       0.00000000
Si      -0.04100736       2.83353690       2.56844430       0.00000000
Si      -0.03936750      -2.65488990      -2.77664136       0.00000000
Si       2.67563250       2.77511010      -0.06164136       0.00000000
Si       2.67563250       0.06011010      -2.77664136       0.00000000
