10
Lattice="10.86 0.0 0.0 0.0 10.86 0.0 0.0 0.0 10.86" Properties=species:S:1:pos:R:3:initial_magmoms:R:1 pbc="T T T"
Si       1.30106058       1.35649002       1.26827424       0.00000000
Si      -1.41393942      -1.35850998       1.26827424       0.00000000
Si       1.23857214      -1.36774098      -1.45348068       0.00000000
Si      -1.41393942       1.35649002      -1.44672576       0.00000000
Si       2.65856058      -0.00100998       2.62577424       0.00000000
Si      -0.05643942       2.71399002       2.62577424       0.00000000
Si      -0.05643942      -2.71600998       2.62577424       0.00000000
Si       2.63069382      -2.73851190      -0.07016646       0.00000000
Si       2.63628672       2.75110950      -0.12285918       0.00000000
Si      -0.02111184       2.70960258      -2.68312590       0.00000000
