10
Lattice="10.86 0.0 0.0 0.0 10.86 0.0 0.0 0.0 10.86" Properties=species:S:1:pos:R:3:initial_magmoms:R:1 pbc="T T T"
Si      -1.28217504      -1.36574274       1.34646624       0.00000000
Si      -1.28217504       1.34925726      -1.36853376       0.00000000
Si       1.43282496      -1.36574274      -1.36853376       0.00000000
Si      -2.66668386      -0.02796450       2.58143286       0.00000000
Si      -2.67559992       2.59643052      -0.07556388       0.00000000
Si      -2.63967504      -2.72324274      -0.01103376       0.00000000
Si      -2.63967504      -0.00824274      -2.72603376       0.00000000
Si       0.07532496      -2.72324274       2.70396624       0.00000000
Si       0.07532496       2.70675726      -2.72603376       0.00000000
Si       0.07532496      -2.72324274      -2.72603376       0.00000000
