10
Lattice="16.28999089631971 0.0 0.0 0.0 16.28999089631971 0.0 0.0 0.0 34.49183129400761" Properties=species:S:1:pos:R:3:initial_magmoms:R:1 pbc="T T T"
Si      -1.35574665       1.35537687      -1.35911688       0.00000000
Si       1.35907470      -1.35891180      -1.35866849       0.00000000
Si       1.36075257       1.36331010       1.36508397       0.00000000
Si      -1.37474079      -1.35847034       1.35725432       0.00000000
Si      -0.00548973      -2.67904786       2.71464661       0.00000000
Si      -2.71192743       2.71054197       0.00217299       0.00000000
Si       2.71832859       2.70866862      -0.00241443       0.00000000
Si       0.00128691       2.71239903      -2.71595730       0.00000000
Si      -2.71375642      -0.00291591      -2.71585382       0.00000000
Si       2.71357191      -2.71696001       0.00113823       0.00000000
