10
Lattice="16.28999089631971 0.0 0.0 0.0 16.28999089631971 0.0 0.0 0.0 34.49183129400761" Properties=species:S:1:pos:R:3:initial_magmoms:R:1 pbc="T T T"
Si      -1.09056663      -2.00347452       0.36237138       0.00000000
Si       0.24153183       0.72480726      -2.19554426       0.00000000
Si      -1.78152327       1.53025002       0.31318600       0.00000000
Si       2.06138547      -0.22693599       1.18038011       0.00000000
Si      -0.26511975       3.34322928       0.33839955       0.00000000
Si      -0.57904434      -2.25707724       2.66197755       0.00000000
Si       0.46206585       3.05905023      -1.87083797       0.00000000
Si      -1.82622303       0.27160317      -3.19366943       0.00000000
Si      -3.28351503       0.41282118       1.76167127       0.00000000
Si      -0.92310543      -3.28347756      -1.56265329       0.00000000
