10
Lattice="16.28999089631971 0.0 0.0 0.0 16.28999089631971 0.0 0.0 0.0 34.49183129400761" Properties=species:S:1:pos:R:3:initial_magmoms:R:1 pbc="T T T"
Si      -1.35597960       1.35575154       1.35942731       0.00000000
Si       1.33983621       1.36485765      -1.37397597       0.00000000
Si       1.35884664      -1.36098063       1.35959977       0.00000000
Si      -1.35334062      -1.36844145      -1.39131157       0.00000000
Si       2.61747720      -0.10909413      -2.69004357       0.00000000
Si      -2.71332756       2.71368594      -0.00303528       0.00000000
Si       2.71946889       2.71096551      -0.00272486       0.00000000
Si       0.00073305       2.71324611       2.71726799       0.00000000
Si      -2.71406061      -0.00148239       2.71750943       0.00000000
Si      -2.71283886      -2.71969043       0.00131069       0.00000000
