10
Lattice="16.28999089631971 0.0 0.0 0.0 16.28999089631971 0.0 0.0 0.0 34.49183129400761" Properties=species:S:1:pos:R:3:initial_magmoms:R:1 pbc="T T T"
Si      -1.32760242       1.26234468      -1.47759639       0.00000000
Si      -1.87954020      -0.96154983       1.15844329       0.00000000
Si       1.38673512      -1.46046692      -1.45324514       0.00000000
Si       1.08440901       1.80864612       1.35415005       0.00000000
Si      -0.81425565      -1.55266832       3.20705227       0.00000000
Si      -2.59577892       2.63725326      -0.00082780       0.00000000
Si       0.02997360       2.60770320      -2.84509479       0.00000000
Si      -0.81174699       3.45857877       1.53712932       0.00000000
Si      -2.69384472      -2.78001328      -0.12803375       0.00000000
Si       2.92798089       2.59514361       0.06287864       0.00000000
