10
Lattice="16.28999089631971 0.0 0.0 0.0 16.28999089631971 0.0 0.0 0.0 34.49183129400761" Properties=species:S:1:pos:R:3:initial_magmoms:R:1 pbc="T T T"
Si      -1.69212375      -1.23521185       1.29303049       0.00000000
Si       1.38091959       1.95405154      -0.60512503       0.00000000
Si       0.53828676      -1.46019304      -1.96400046       0.00000000
Si       1.69850943       0.72415980       1.85390248       0.00000000
Si      -2.28362994       1.26379211      -0.33791666       0.00000000
Si      -3.69750420      -0.46339165       0.44432402       0.00000000
Si       0.05098770       3.89217058       0.08053847       0.00000000
Si       1.47450564       0.03801001      -3.61036547       0.00000000
Si       2.56217265      -2.89876294      -0.66727934       0.00000000
Si       2.89763262       1.36727922      -2.28680969       0.00000000
