10
Lattice="16.28999089631971 0.0 0.0 0.0 16.28999089631971 0.0 0.0 0.0 34.49183129400761" Properties=species:S:1:pos:R:3:initial_magmoms:R:1 pbc="T T T"
Si       1.35415512      -1.35265644      -1.35684042       0.00000000
Si      -1.35757602      -1.34535852       1.36749840       0.00000000
Si      -1.35733167       1.36270737      -1.35528828       0.00000000
Si       1.37629323       1.35430173       1.38239888       0.00000000
Si      -0.09594810       2.54912436       2.80284227       0.00000000
Si       2.71016730      -2.71130760       0.00503581       0.00000000
Si      -0.00223173      -2.71093293      -2.71374982       0.00000000
Si       2.71239903       0.00366525      -2.71343939       0.00000000
Si      -2.71832859      -2.70866862       0.00241443       0.00000000
Si      -2.71704168       0.00373041      -2.71354287       0.00000000
