10
Lattice="16.28999089631971 0.0 0.0 0.0 16.28999089631971 0.0 0.0 0.0 34.49183129400761" Properties=species:S:1:pos:R:3:initial_magmoms:R:1 pbc="T T T"
Si       0.60473367       1.80273285       1.30634435       0.00000000
Si       0.74277513      -2.13242616       0.53507208       0.00000000
Si       1.56108699       0.43815213      -1.72176420       0.00000000
Si      -2.32758036       0.35557812      -0.49613078       0.00000000
Si      -0.07959294       0.15213231      -3.38354707       0.00000000
Si      -0.53032095      -2.33601858       2.50110756       0.00000000
Si      -1.94131188       1.35840681      -2.58261180       0.00000000
Si       0.50691222       3.61069479      -0.17766752       0.00000000
Si       0.59559498      -3.30880851      -1.58921202       0.00000000
Si      -0.62532423       1.76191011       3.24878741       0.00000000
