10
Lattice="16.28999089631971 0.0 0.0 0.0 16.28999089631971 0.0 0.0 0.0 34.49183129400761" Properties=species:S:1:pos:R:3:initial_magmoms:R:1 pbc="T T T"
Si      -1.23005790      -0.04082274       1.94244306       0.00000000
Si      -0.60473367      -1.80273285      -1.30634435       0.00000000
Si      -0.09782145       1.80796194      -1.48401187       0.00000000
Si       2.28806082      -0.04408074       0.51441146       0.00000000
Si       1.73654658       0.92364300      -2.72509764       0.00000000
Si       0.95635332      -1.36458072      -3.02810855       0.00000000
Si       2.19603861       1.41333669       2.39901168       0.00000000
Si      -0.85240683      -2.22394338       2.64718055       0.00000000
Si      -0.10132380       1.68632451       3.13827552       0.00000000
Si      -2.93231403      -1.44715473      -1.80247513       0.00000000
