10
Lattice="16.28999089631971 0.0 0.0 0.0 16.28999089631971 0.0 0.0 0.0 34.49183129400761" Properties=species:S:1:pos:R:3:initial_magmoms:R:1 pbc="T T T"
Si       1.35107631       1.36236528      -1.36532541       0.00000000
Si      -1.22383512       1.50457698       1.33676616       0.00000000
Si      -1.36853919      -1.34904006      -1.36625669       0.00000000
Si       1.25411823      -1.51796736       1.43386072       0.00000000
Si      -2.32953516      -0.02420694       2.66553021       0.00000000
Si      -2.70900419      -2.70635544       0.00696735       0.00000000
Si      -0.00726534      -2.70438435      -2.72426983       0.00000000
Si       2.70767493       0.00944820      -2.72696020       0.00000000
Si       2.69825931       2.73706209       0.00958873       0.00000000
Si       2.72635956      -2.71278999       0.01341733       0.00000000
