10
Lattice="16.28999089631971 0.0 0.0 0.0 16.28999089631971 0.0 0.0 0.0 34.49183129400761" Properties=species:S:1:pos:R:3:initial_magmoms:R:1 pbc="T T T"
Si       0.09782145      -1.80796194       1.48401187       0.00000000
Si       1.83436803      -0.88431894      -1.24108577       0.00000000
Si      -1.89076401      -0.05203026      -1.48987549       0.00000000
Si       0.60334902       2.08277424       1.08004332       0.00000000
Si       2.38588227      -1.85204268       1.99842333       0.00000000
Si      -0.50691222      -3.61069479       0.17766752       0.00000000
Si       1.05417477      -3.17254266      -1.54409667       0.00000000
Si      -1.45792242       1.53647280      -3.17369865       0.00000000
Si       1.02021012       3.60880515      -0.71970695       0.00000000
Si      -3.91764726       0.25835940      -0.30632212       0.00000000
