10
Lattice="16.28999089631971 0.0 0.0 0.0 16.28999089631971 0.0 0.0 0.0 34.49183129400761" Properties=species:S:1:pos:R:3:initial_magmoms:R:1 pbc="T T T"
Si      -2.00538045       0.77182020      -0.84870648       0.00000000
Si      -0.13442508      -2.32624458       0.37509887       0.00000000
Si      -0.27144027       0.89282232       2.17184835       0.00000000
Si       1.69212375       1.23521185      -1.29303049       0.00000000
Si      -0.59150619       2.49900396      -1.63094715       0.00000000
Si      -2.71567332      -1.16734140      -2.08275590       0.00000000
Si       1.99374939      -2.80279224       1.44062112       0.00000000
Si      -2.37509829      -2.69721675       1.26588541       0.00000000
Si      -2.54052324       0.74922597       2.78463057       0.00000000
Si      -3.41503560       1.71745048       0.84184260       0.00000000
