10
Lattice="16.28999089631971 0.0 0.0 0.0 16.28999089631971 0.0 0.0 0.0 34.49183129400761" Properties=species:S:1:pos:R:3:initial_magmoms:R:1 pbc="T T T"
Si      -1.81887624       1.44265869       0.15348874       0.00000000
Si       0.71545680      -0.82499076       2.10790046       0.00000000
Si       1.74816135       1.05686262      -1.25464106       0.00000000
Si      -0.79531038      -2.06076645      -0.96501300       0.00000000
Si       2.52672561      -1.96589349       1.02454593       0.00000000
Si      -0.51818490       3.29509952       0.90965358       0.00000000
Si       3.47757291      -0.35578989      -0.47619449       0.00000000
Si      -1.28329362      -2.06509959       2.84488783       0.00000000
Si      -1.18455993      -3.49677882       0.90385894       0.00000000
Si       1.53282384       0.56438334      -3.53751869       0.00000000
