10
Lattice="16.28999089631971 0.0 0.0 0.0 16.28999089631971 0.0 0.0 0.0 34.49183129400761" Properties=species:S:1:pos:R:3:initial_magmoms:R:1 pbc="T T T"
Si      -0.21533751      -0.49247928      -2.28287762       0.00000000
Si       1.72941156      -1.41265251       0.77844658       0.00000000
Si      -1.74816135      -1.05686262       1.25464106       0.00000000
Si       1.01594214       2.14753743       0.48126479       0.00000000
Si       0.09153351       2.13801593       2.57930059       0.00000000
Si       1.85111415       0.34365384      -3.20491377       0.00000000
Si       3.11196015      -0.02376711       2.05212714       0.00000000
Si       3.32172648       1.65346336       0.37168418       0.00000000
Si      -2.26634625       2.23823690       2.16429464       0.00000000
Si      -3.56703759       0.38579607       1.40812980       0.00000000
