10
Lattice="16.28999089631971 0.0 0.0 0.0 16.28999089631971 0.0 0.0 0.0 34.49183129400761" Properties=species:S:1:pos:R:3:initial_magmoms:R:1 pbc="T T T"
Si       0.87057018      -1.51466049       1.52395343       0.00000000
Si      -0.78464043      -1.21769379      -1.82627450       0.00000000
Si       1.59705531       1.25957538      -1.36435964       0.00000000
Si      -1.95509322       1.21513626       1.28482143       0.00000000
Si       1.77161895       0.12657330       2.97851413       0.00000000
Si       2.61154764      -2.36292966      -0.49361287       0.00000000
Si       3.22626708       1.30629510       1.54351031       0.00000000
Si       0.33959763       2.80217552      -2.60951545       0.00000000
Si      -2.78339085      -2.45780262      -1.08928713       0.00000000
Si       1.02662838      -2.35859652      -2.90962904       0.00000000
