10
Lattice="16.28999089631971 0.0 0.0 0.0 16.28999089631971 0.0 0.0 0.0 34.49183129400761" Properties=species:S:1:pos:R:3:initial_magmoms:R:1 pbc="T T T"
Si      -1.36598166      -1.34789976      -1.36936096       0.00000000
Si      -1.17814167       1.35084825       1.53357666       0.00000000
Si       1.34936586       1.36798533      -1.37070614       0.00000000
Si       1.51218441      -1.20881574       1.41230331       0.00000000
Si       0.84828546       2.16301878       3.02521123       0.00000000
Si       2.61500112       0.42331194       2.75289807       0.00000000
Si       2.70845685      -2.69978405      -0.00348368       0.00000000
Si      -2.69985573       2.71770957       0.00800211       0.00000000
Si      -2.71938744      -2.70476228       0.01745288       0.00000000
Si       0.26088435      -2.69347657       2.72885725       0.00000000
