10
Lattice="16.28999089631971 0.0 0.0 0.0 16.28999089631971 0.0 0.0 0.0 34.49183129400761" Properties=species:S:1:pos:R:3:initial_magmoms:R:1 pbc="T T T"
Si      -1.67653422      -1.27408651       1.09922079       0.00000000
Si      -1.99412406      -0.04419477      -1.35980672       0.00000000
Si       1.85416038      -1.51478592      -0.49571688       0.00000000
Si       0.13146030       2.30641965       1.04289559       0.00000000
Si      -0.47741103      -0.63096709      -3.04149138       0.00000000
Si      -2.67695199       0.47640105       2.38693953       0.00000000
Si      -2.21433228       2.61562014       1.43241206       0.00000000
Si      -0.57954933      -2.83871888       2.57160890       0.00000000
Si      -3.32405595       1.89392427      -0.67414322       0.00000000
Si       1.55882268       2.06702181       2.98961564       0.00000000
