10
Lattice="16.28999089631971 0.0 0.0 0.0 16.28999089631971 0.0 0.0 0.0 34.49183129400761" Properties=species:S:1:pos:R:3:initial_magmoms:R:1 pbc="T T T"
Si      -0.92440863      -0.00952150       2.09803579       0.00000000
Si      -0.21716199       2.08881457      -1.04234372       0.00000000
Si       2.30578434      -0.49407407      -0.10958061       0.00000000
Si      -1.01594214      -2.14753743      -0.48126479       0.00000000
Si       2.19571281      -0.31583704      -2.50603989       0.00000000
Si       2.09601801      -2.17130454       1.57086235       0.00000000
Si       1.36345671       1.94051041      -2.75551945       0.00000000
Si      -2.39039460       1.96680247      -1.91560840       0.00000000
Si       0.71346942      -3.56018994       0.29718178       0.00000000
Si      -3.28228839       0.09069946       1.68302985       0.00000000
