10
Lattice="16.28999089631971 0.0 0.0 0.0 16.28999089631971 0.0 0.0 0.0 34.49183129400761" Properties=species:S:1:pos:R:3:initial_magmoms:R:1 pbc="T T T"
Si       0.92440863       0.00952150      -2.09803579       0.00000000
Si       1.25745768      -1.54260014       1.24515581       0.00000000
Si      -2.35787976       0.10022097      -0.41500595       0.00000000
Si      -0.09153351      -2.13801593      -2.57930059       0.00000000
Si       2.23627491       0.15969413       2.65118160       0.00000000
Si      -3.12236946       1.18291953       1.51305401       0.00000000
Si      -1.30860828       2.47641069       2.42946799       0.00000000
Si       3.02042664      -2.16178304      -0.52717344       0.00000000
Si       0.70724664       2.09833608      -3.14037952       0.00000000
Si      -0.33959763      -2.80217552       2.60951545       0.00000000
