10
Lattice="16.28999089631971 0.0 0.0 0.0 16.28999089631971 0.0 0.0 0.0 34.49183129400761" Properties=species:S:1:pos:R:3:initial_magmoms:R:1 pbc="T T T"
Si      -0.69533865       1.89060111       1.29503102       0.00000000
Si       2.42010756       0.20041587       0.08119382       0.00000000
Si      -0.57300075      -2.01189645       1.28844308       0.00000000
Si      -0.59447097      -0.09278784      -2.49958992       0.00000000
Si       1.17224469      -1.83249468      -2.77190308       0.00000000
Si       3.07053468      -1.62702891      -1.26388488       0.00000000
Si      -2.91879333      -1.70269596       1.67795955       0.00000000
Si      -1.57011165       1.01240721       3.34219134       0.00000000
Si       1.02356586       3.58850781       1.51260561       0.00000000
Si       0.85436163      -2.25129429       3.23516312       0.00000000
