10
Lattice="16.28999089631971 0.0 0.0 0.0 16.28999089631971 0.0 0.0 0.0 34.49183129400761" Properties=species:S:1:pos:R:3:initial_magmoms:R:1 pbc="T T T"
Si      -0.61167321       1.90900881       1.16044382       0.00000000
Si       0.87477300       0.87819390      -2.04716032       0.00000000
Si      -2.20775112      -0.80011593      -0.56135487       0.00000000
Si       1.34990343      -1.62478089       1.24822558       0.00000000
Si      -1.34868168      -2.71510317      -1.66423179       0.00000000
Si      -1.08128133       0.89373456       3.21198460       0.00000000
Si      -1.86147459      -1.39448916       2.90897369       0.00000000
Si      -2.48528385       2.79002088      -0.05967090       0.00000000
Si      -0.95570172       2.22475788      -2.85896051       0.00000000
Si      -3.16724841       1.15799094      -1.67202695       0.00000000
