10
Lattice="16.28999089631971 0.0 0.0 0.0 16.28999089631971 0.0 0.0 0.0 34.49183129400761" Properties=species:S:1:pos:R:3:initial_magmoms:R:1 pbc="T T T"
Si      -0.91885374      -1.92352320      -0.97187687       0.00000000
Si       1.46482938       1.38471516      -1.22032167       0.00000000
Si       1.18899081      -0.98186346       1.85735166       0.00000000
Si      -1.74654864       1.61500689       0.44042644       0.00000000
Si       2.48161860       1.95649416       0.85436314       0.00000000
Si      -2.71204065      -2.13195375       0.57297862       0.00000000
Si       2.53939923      -0.25420545      -2.57557547       0.00000000
Si      -0.39162789      -0.83355930       3.57052739       0.00000000
Si       2.56401342      -2.34501066      -1.37777697       0.00000000
Si      -3.38722857       1.32898707      -1.22135643       0.00000000
