10
Lattice="16.28999089631971 0.0 0.0 0.0 16.28999089631971 0.0 0.0 0.0 34.49183129400761" Properties=species:S:1:pos:R:3:initial_magmoms:R:1 pbc="T T T"
Si      -1.27345446       1.31505912       1.51534427       0.00000000
Si       1.38272778       1.41314121      -1.39713867       0.00000000
Si       1.44085050      -1.39183389       1.50842175       0.00000000
Si      -1.54859256      -1.49426541      -1.60650420       0.00000000
Si      -2.49158808       2.69563662      -0.02861099       0.00000000
Si       2.72758131       2.56999185       0.14348610       0.00000000
Si      -2.62296693      -0.04592151       2.89090341       0.00000000
Si       2.72766276       0.08390979      -2.81727163       0.00000000
Si      -2.74113459      -2.81777904       0.03597845       0.00000000
Si       0.09026289       2.67035454       2.89335233       0.00000000
