10
Lattice="16.28999089631971 0.0 0.0 0.0 16.28999089631971 0.0 0.0 0.0 34.49183129400761" Properties=species:S:1:pos:R:3:initial_magmoms:R:1 pbc="T T T"
Si       2.05436448       0.34298595      -0.99498641       0.00000000
Si       0.02712285      -2.06816211       1.07576633       0.00000000
Si       0.12214242       1.73623707       1.61901297       0.00000000
Si      -1.66338819       0.40923738      -1.72721391       0.00000000
Si      -2.27023956      -1.79517429       1.81503016       0.00000000
Si       1.07298972       3.34634067       0.11827256       0.00000000
Si      -3.19989357       1.64136411      -0.37054595       0.00000000
Si       0.11914506      -3.52557954      -0.80883390       0.00000000
Si       2.31572124       2.51911818      -1.74111412       0.00000000
Si      -3.58914312       0.20535174       1.49832599       0.00000000
