10
Lattice="16.28999089631971 0.0 0.0 0.0 16.28999089631971 0.0 0.0 0.0 34.49183129400761" Properties=species:S:1:pos:R:3:initial_magmoms:R:1 pbc="T T T"
Si       1.95515838      -0.77962311      -1.08087112       0.00000000
Si      -1.66141710      -1.44418995       1.00674813       0.00000000
Si      -1.78500933       0.45994815      -1.63784552       0.00000000
Si       1.59534486       1.37753127       1.77805490       0.00000000
Si       3.04725627      -1.60241472       0.96052905       0.00000000
Si      -0.29789523      -3.21466860       1.64664095       0.00000000
Si       1.16910072      -2.93946534      -1.84728004       0.00000000
Si       1.68651999      -3.50432109       0.42652622       0.00000000
Si       2.69760771       0.73840941      -2.79408134       0.00000000
Si      -2.68091046      -0.20064393       2.98882233       0.00000000
