10
Lattice="16.28999089631971 0.0 0.0 0.0 16.28999089631971 0.0 0.0 0.0 34.49183129400761" Properties=species:S:1:pos:R:3:initial_magmoms:R:1 pbc="T T T"
Si       0.51134310      -1.56652785      -1.78129713       0.00000000
Si      -0.47552139      -1.52585172       1.90353625       0.00000000
Si       2.26665576       0.96648570       0.54969662       0.00000000
Si      -2.02388589       1.43856990      -1.29672112       0.00000000
Si       1.38150603       0.11134215      -3.10692242       0.00000000
Si       3.02994000       1.15867512      -1.76018812       0.00000000
Si      -2.56217265       2.89876294       0.66727934       0.00000000
Si       1.29042864      -1.62386865       3.46622403       0.00000000
Si       2.12850027       0.61467057       3.45422087       0.00000000
Si      -1.28467827      -2.54138661      -2.98730469       0.00000000
