10
Lattice="16.28999089631971 0.0 0.0 0.0 16.28999089631971 0.0 0.0 0.0 34.49183129400761" Properties=species:S:1:pos:R:3:initial_magmoms:R:1 pbc="T T T"
Si       1.29440014      -1.37007045       1.53658435       0.00000000
Si       1.08942307       1.84456557      -1.25035515       0.00000000
Si      -1.41867396       1.33621983       1.54199267       0.00000000
Si      -1.18414453      -1.54476441      -1.66349853       0.00000000
Si      -2.63141559       2.64598470      -0.05735305       0.00000000
Si      -2.72320974      -2.59517619       0.08583642       0.00000000
Si       2.54249107      -2.89364157       0.05390731       0.00000000
Si      -0.72090255       3.58880103      -1.36735150       0.00000000
Si       2.69424871       2.84229549       0.11609957       0.00000000
Si       2.65109650      -0.00726534       2.92686462       0.00000000
