10
Lattice="16.28999089631971 0.0 0.0 0.0 16.28999089631971 0.0 0.0 0.0 34.49183129400761" Properties=species:S:1:pos:R:3:initial_magmoms:R:1 pbc="T T T"
Si      -1.33530759       1.34605573      -1.39340178       0.00000000
Si      -1.08840006      -1.75500382       1.19828138       0.00000000
Si       1.38623013      -1.37246575      -1.39402263       0.00000000
Si       0.99290808       1.59150042       1.54123385       0.00000000
Si       2.66308920       2.65747567       0.04953030       0.00000000
Si      -2.53158003       2.83702405       0.02238521       0.00000000
Si       0.70534071      -3.53411617       1.27412896       0.00000000
Si       2.66538609      -2.76416932       0.06888023       0.00000000
Si      -2.69208540      -0.01796854      -2.76369402       0.00000000
Si       0.02309922       2.69697892      -2.76069323       0.00000000
