10
Lattice="16.28999089631971 0.0 0.0 0.0 16.28999089631971 0.0 0.0 0.0 34.49183129400761" Properties=species:S:1:pos:R:3:initial_magmoms:R:1 pbc="T T T"
Si      -0.53665776       1.17530721       1.98959342       0.00000000
Si      -0.64874925      -2.19661202       0.66524432       0.00000000
Si      -1.40312286       0.61436106      -1.83958836       0.00000000
Si       2.29969581       0.32415471      -0.64261767       0.00000000
Si      -2.57577480      -1.50271992       1.97058841       0.00000000
Si      -2.06408961      -2.89669432      -1.10577424       0.00000000
Si       0.76705018       0.21281256       3.66251715       0.00000000
Si       3.59302733      -0.63037413       1.09632347       0.00000000
Si      -0.83334753       2.73406473      -2.56464155       0.00000000
Si       1.03044254      -3.30622166       1.92229982       0.00000000
