10
Lattice="16.28999089631971 0.0 0.0 0.0 16.28999089631971 0.0 0.0 0.0 34.49183129400761" Properties=species:S:1:pos:R:3:initial_magmoms:R:1 pbc="T T T"
Si      -0.57174642      -2.22947288       0.51082431       0.00000000
Si       1.20083806       0.99557964      -1.79092036       0.00000000
Si      -1.72732644       1.57144743       0.64613584       0.00000000
Si       1.93182851       0.11468649       1.52433284       0.00000000
Si       3.02036867       1.04340056      -0.32360254       0.00000000
Si      -1.15929414       1.39062843       2.93967144       0.00000000
Si       1.14642504       1.90267200       2.87344709       0.00000000
Si      -3.72449673       0.49880469       0.02597236       0.00000000
Si      -1.92476124      -2.13684794       2.46596036       0.00000000
Si       1.35539546      -3.63253058       0.52520741       0.00000000
