10
Lattice="16.28999089631971 0.0 0.0 0.0 16.28999089631971 0.0 0.0 0.0 34.49183129400761" Properties=species:S:1:pos:R:3:initial_magmoms:R:1 pbc="T T T"
Si      -1.99717029      -1.07264274      -0.62016347       0.00000000
Si       0.56803230      -0.18081900       2.29353560       0.00000000
Si       1.72732644      -1.57144743      -0.64613584       0.00000000
Si      -0.11380194       2.23026390      -0.96056355       0.00000000
Si       2.87375148       0.33122457       2.22731125       0.00000000
Si      -2.20693662      -2.74987322       1.06027949       0.00000000
Si      -1.68124203       3.33731601       0.53465818       0.00000000
Si       2.14733151       2.99173995      -0.83363354       0.00000000
Si      -2.10724182      -0.89440571      -3.01662276       0.00000000
Si       2.92816450      -0.57586779      -2.43705619       0.00000000
