10
Lattice="16.28999089631971 0.0 0.0 0.0 16.28999089631971 0.0 0.0 0.0 34.49183129400761" Properties=species:S:1:pos:R:3:initial_magmoms:R:1 pbc="T T T"
Si       1.26917019      -1.40802615       1.36857455       0.00000000
Si       1.06603389       1.15934301      -1.75128374       0.00000000
Si      -1.47774735       1.30583898       1.33842867       0.00000000
Si      -1.12992327      -1.86759963      -1.01424252       0.00000000
Si       2.65815333      -2.65044816      -0.12108364       0.00000000
Si       2.60247411      -0.06380793       2.72767073       0.00000000
Si       0.64526319      -3.58606431      -1.03041644       0.00000000
Si       2.74994748       2.59071273      -0.26427311       0.00000000
Si      -0.11113038       2.65075767       2.72249695       0.00000000
Si      -0.11481192      -2.77819434       2.72022049       0.00000000
