10
Lattice="16.28999089631971 0.0 0.0 0.0 16.28999089631971 0.0 0.0 0.0 34.49183129400761" Properties=species:S:1:pos:R:3:initial_magmoms:R:1 pbc="T T T"
Si       1.35609091       1.35801585      -1.35708186       0.00000000
Si      -1.35738054       1.35685926       1.35773721       0.00000000
Si      -1.35777150      -1.35821133      -1.35704737       0.00000000
Si       1.35793627      -1.35819504       1.35797865       0.00000000
Si       0.00079821       2.71381626      -2.71209421       0.00000000
Si      -2.71441899       2.71469592       0.00034492       0.00000000
Si       0.00058644       2.71539639       2.71437067       0.00000000
Si      -2.71419093      -0.00110772       2.71557789       0.00000000
Si       2.71528466       2.71459818       0.00051738       0.00000000
Si       0.00226431      -2.71532471       2.71495703       0.00000000
