10
Lattice="16.28999089631971 0.0 0.0 0.0 16.28999089631971 0.0 0.0 0.0 34.49183129400761" Properties=species:S:1:pos:R:3:initial_magmoms:R:1 pbc="T T T"
Si       1.35738054      -1.35685926      -1.35773721       0.00000000
Si      -1.35703845       1.35783666      -1.35739229       0.00000000
Si      -1.35681039      -1.35796698       1.35784068       0.00000000
Si       1.35796698       1.35853713       1.35663347       0.00000000
Si       2.71347145       0.00115659      -2.71481907       0.00000000
Si       0.00061902       2.71464705      -2.71430169       0.00000000
Si      -2.71502172       0.00004887      -2.71430169       0.00000000
Si      -2.71479366      -2.71461447      -0.00010348       0.00000000
Si      -0.00039096      -2.71507059      -2.71478457       0.00000000
Si      -2.71480995       2.71528236       0.00017246       0.00000000
