10
Lattice="16.28999089631971 0.0 0.0 0.0 16.28999089631971 0.0 0.0 0.0 34.49183129400761" Properties=species:S:1:pos:R:3:initial_magmoms:R:1 pbc="T T T"
Si      -1.35798327      -1.35664749      -1.35794416       0.00000000
Si       1.35681039       1.35796698      -1.35784068       0.00000000
Si       1.35723393      -1.35777150       1.35946180       0.00000000
Si      -1.36026387       1.35907470       1.35953078       0.00000000
Si      -0.00112401      -2.71427401      -2.71523297       0.00000000
Si       2.71419093       0.00110772      -2.71557789       0.00000000
Si       2.71645524      -2.71421699      -0.00062085       0.00000000
Si      -0.00022806       2.71580364      -2.71523297       0.00000000
Si      -2.71580364       0.00053757      -2.71526746       0.00000000
Si       2.71477737       2.71650411      -0.00120721       0.00000000
