10
Lattice="16.28999089631971 0.0 0.0 0.0 16.28999089631971 0.0 0.0 0.0 34.49183129400761" Properties=species:S:1:pos:R:3:initial_magmoms:R:1 pbc="T T T"
Si      -1.36073628      -1.90190637      -0.53400283       0.00000000
Si       2.35812411      -0.30247272      -0.43887431       0.00000000
Si      -1.09209789       0.82279161      -2.04140018       0.00000000
Si      -0.19494243       1.35770634       2.05350682       0.00000000
Si      -1.45191141       2.97994599       0.81752584       0.00000000
Si      -3.04725627       1.60241472      -0.96052905       0.00000000
Si      -1.87815555      -1.33705062      -2.80780910       0.00000000
Si       2.67211386       2.01868938      -1.53726729       0.00000000
Si      -3.34515150      -1.61225388       0.68611189       0.00000000
Si       2.93624222      -1.40167305       1.93437196       0.00000000
