10
Lattice="16.28999089631971 0.0 0.0 0.0 16.28999089631971 0.0 0.0 0.0 34.49183129400761" Properties=species:S:1:pos:R:3:initial_magmoms:R:1 pbc="T T T"
Si      -2.06531136      -0.46793025       0.93096954       0.00000000
Si      -0.20355984       2.08440324      -1.07728397       0.00000000
Si       0.45908478      -1.42293150      -1.83644960       0.00000000
Si       1.61219102      -0.49858803       1.69924102       0.00000000
Si      -1.29402873      -2.59278156       1.56072175       0.00000000
Si       1.93093908       2.08821510      -2.14766957       0.00000000
Si       1.93373770      -0.09218511      -3.01696768       0.00000000
Si       0.99110871      -2.67805971       2.36890030       0.00000000
Si      -3.70678950      -0.34630911      -0.77799818       0.00000000
Si       3.74970455       0.06291198       0.85712249       0.00000000
