10
Lattice="16.28999089631971 0.0 0.0 0.0 16.28999089631971 0.0 0.0 0.0 34.49183129400761" Properties=species:S:1:pos:R:3:initial_magmoms:R:1 pbc="T T T"
Si       1.26817650      -1.37490858      -1.47676858       0.00000000
Si      -1.43331800       1.33118622      -1.46831808       0.00000000
Si      -1.20832704      -1.67392782       1.34083620       0.00000000
Si       1.78403193       0.82132551       1.53795713       0.00000000
Si       2.52980442       2.51957430      -0.04142471       0.00000000
Si       2.59577892      -2.63725326       0.00082780       0.00000000
Si      -2.64749267      -0.08446365       2.76559107       0.00000000
Si       0.71623872      -3.59880309       1.15927110       0.00000000
Si      -2.68017985       2.77063578      -0.07643394       0.00000000
Si       2.62575252      -0.02955006      -2.84426698       0.00000000
