10
Lattice="16.28999089631971 0.0 0.0 0.0 16.28999089631971 0.0 0.0 0.0 34.49183129400761" Properties=species:S:1:pos:R:3:initial_magmoms:R:1 pbc="T T T"
Si      -2.35432854       0.06960717       0.10571752       0.00000000
Si       0.73977763       2.07106173      -0.85394924       0.00000000
Si       0.66125997      -1.87533738      -1.33386885       0.00000000
Si       0.66743388      -0.25252758       2.32306063       0.00000000
Si      -0.26024904       1.98516456      -2.99644503       0.00000000
Si       3.07407680       1.72413360      -1.00236767       0.00000000
Si      -2.85633747       2.35877571       0.51786064       0.00000000
Si       2.98225007      -1.58200335      -1.67444138       0.00000000
Si       3.00842810      -0.54345069       2.32537158       0.00000000
Si      -3.09677787      -1.44842535       1.81892774       0.00000000
