10
Lattice="16.28999089631971 0.0 0.0 0.0 16.28999089631971 0.0 0.0 0.0 34.49183129400761" Properties=species:S:1:pos:R:3:initial_magmoms:R:1 pbc="T T T"
Si       0.96844050       2.13231213      -0.20181182       0.00000000
Si      -0.66803661      -0.39983805       2.24045265       0.00000000
Si      -2.26538025       0.08024454      -0.86774598       0.00000000
Si       1.55890413      -1.40025582      -1.58834972       0.00000000
Si       0.63423486       2.62580139      -2.56302043       0.00000000
Si      -1.27542881      -2.74752027       2.20299450       0.00000000
Si       1.15220799       0.26722116       3.66196528       0.00000000
Si       3.34883304       1.89944658      -0.05818775       0.00000000
Si      -0.72413937      -3.78470457       0.00613955       0.00000000
Si      -2.48233373       0.98580564       2.93115195       0.00000000
