10
Lattice="16.28999089631971 0.0 0.0 0.0 16.28999089631971 0.0 0.0 0.0 34.49183129400761" Properties=species:S:1:pos:R:3:initial_magmoms:R:1 pbc="T T T"
Si      -1.34416935      -1.36860435       1.33935305       0.00000000
Si      -1.35503478       1.35733167      -1.35815111       0.00000000
Si       1.35876519      -1.35653346      -1.35756475       0.00000000
Si       1.36497168       1.35949824       1.36884358       0.00000000
Si      -2.75809248      -0.07037280       2.61441329       0.00000000
Si       2.71344159      -2.71261080       0.00010348       0.00000000
Si      -2.70845685      -2.71790505      -0.00086230       0.00000000
Si      -2.71334385       2.71399545      -0.00082780       0.00000000
Si      -2.71337643       0.00000000      -2.71516399       0.00000000
Si       0.00133578      -2.71489140      -2.71506051       0.00000000
