10
Lattice="16.28999089631971 0.0 0.0 0.0 16.28999089631971 0.0 0.0 0.0 34.49183129400761" Properties=species:S:1:pos:R:3:initial_magmoms:R:1 pbc="T T T"
Si       0.04408074       2.34585841      -0.15307483       0.00000000
Si      -0.42033087      -1.23613407       1.96910526       0.00000000
Si      -1.90933461      -0.55737864      -1.34345758       0.00000000
Si       2.17101717      -0.41148540      -0.96891057       0.00000000
Si       0.52683489       2.61086576      -2.47354857       0.00000000
Si       1.45942110       3.04594071       1.61794373       0.00000000
Si       2.48800428       1.32651099      -2.58957916       0.00000000
Si       2.00629269      -2.22749460      -2.40794507       0.00000000
Si      -0.83986353      -3.53862783       1.39471247       0.00000000
Si      -2.51742402      -0.72549144       2.94305164       0.00000000
