10
Lattice="16.28999089631971 0.0 0.0 0.0 16.28999089631971 0.0 0.0 0.0 34.49183129400761" Properties=species:S:1:pos:R:3:initial_magmoms:R:1 pbc="T T T"
Si      -0.16472448      -1.81600920      -1.43903450       0.00000000
Si       0.31698711       1.73799639      -1.62066858       0.00000000
Si      -2.17101717       0.41148540       0.96891057       0.00000000
Si       2.21521424      -0.43833132       0.96770336       0.00000000
Si      -2.12693643       2.75734381       0.81583574       0.00000000
Si       1.96977444      -1.81219734      -2.50942010       0.00000000
Si       2.41180685       2.62043776      -1.02661544       0.00000000
Si      -1.64418228       3.02235116      -1.50463800       0.00000000
Si       3.28631921       1.65221325       0.91617253       0.00000000
Si       0.03883536      -3.90041244      -0.36175053       0.00000000
