10
Lattice="16.28999089631971 0.0 0.0 0.0 16.28999089631971 0.0 0.0 0.0 34.49183129400761" Properties=species:S:1:pos:R:3:initial_magmoms:R:1 pbc="T T T"
Si      -1.22352561      -1.39219227      -1.40602580       0.00000000
Si       0.57174642       2.22947288      -0.51082431       0.00000000
Si      -1.35301482       0.09262494       1.95513606       0.00000000
Si       1.92714188      -1.40305770       0.01438310       0.00000000
Si       2.50357493       2.34415936       1.01350854       0.00000000
Si      -1.81032399      -3.18471129       0.13531153       0.00000000
Si       0.04344543      -1.34345259      -3.41948757       0.00000000
Si      -1.94188203      -2.15819694       2.26073385       0.00000000
Si      -3.36251664       1.05104709       1.19559102       0.00000000
Si       3.42913364      -0.28562886      -1.43410216       0.00000000
