10
Lattice="16.28999089631971 0.0 0.0 0.0 16.28999089631971 0.0 0.0 0.0 34.49183129400761" Properties=species:S:1:pos:R:3:initial_magmoms:R:1 pbc="T T T"
Si       1.35226548       1.33949412       1.36842623       0.00000000
Si       1.39952277      -1.23914772      -1.44471875       0.00000000
Si      -1.35913986      -1.37489229       1.36808131       0.00000000
Si      -1.37844351       1.36311462      -1.44440143       0.00000000
Si      -2.01562849      -0.49264218      -2.92816983       0.00000000
Si      -0.20530287      -2.23687764      -2.81117347       0.00000000
Si       2.72070693       2.69781948      -0.02641386       0.00000000
Si      -0.00117288       2.69790093       2.72975059       0.00000000
Si       2.70493821      -2.72709261      -0.01055106       0.00000000
Si      -2.73742766       2.70106119      -0.00876093       0.00000000
