10
Lattice="16.28999089631971 0.0 0.0 0.0 16.28999089631971 0.0 0.0 0.0 34.49183129400761" Properties=species:S:1:pos:R:3:initial_magmoms:R:1 pbc="T T T"
Si      -1.35727995      -1.35707103       1.35708186       0.00000000
Si      -1.35763833       1.35703845      -1.35704737       0.00000000
Si       1.35709573       1.35645201       1.35822009       0.00000000
Si       1.35741827      -1.35786924      -1.35677143       0.00000000
Si       2.71434758      -0.00092853      -2.71409474       0.00000000
Si      -2.71462791      -0.00096111      -2.71385329       0.00000000
Si      -0.00177547      -2.71445157      -2.71437067       0.00000000
Si       2.71452677       2.71433754       0.00037941       0.00000000
Si      -0.00148773       2.71484253      -2.71468110       0.00000000
Si      -2.71532838       2.71480995       0.00051738       0.00000000
