10
Lattice="16.28999089631971 0.0 0.0 0.0 16.28999089631971 0.0 0.0 0.0 34.49183129400761" Properties=species:S:1:pos:R:3:initial_magmoms:R:1 pbc="T T T"
Si      -2.17393960       0.94587885       0.10830441       0.00000000
Si       0.33420564      -0.49348926       2.36120861       0.00000000
Si       1.45720566       1.99321182      -0.01303792       0.00000000
Si      -1.74654864       0.25373304      -2.03001787       0.00000000
Si       3.01488804       0.23307732       0.05511798       0.00000000
Si       1.09133226      -2.93827617      -1.68230552       0.00000000
Si      -0.63423486      -2.62580139       2.56302043       0.00000000
Si       2.71459818      -0.72635481       2.50483268       0.00000000
Si       0.50210667       3.28852746      -1.87949543       0.00000000
Si      -0.64084860       1.78251696      -3.35878192       0.00000000
