10
Lattice="16.28999089631971 0.0 0.0 0.0 16.28999089631971 0.0 0.0 0.0 34.49183129400761" Properties=species:S:1:pos:R:3:initial_magmoms:R:1 pbc="T T T"
Si       0.00820039      -0.90041346      -2.15035993       0.00000000
Si      -1.94955040       0.25321176       1.27968215       0.00000000
Si       0.64911903       2.26725849      -0.28228131       0.00000000
Si       1.55223663      -1.28782224       1.34873483       0.00000000
Si      -0.61288193      -3.07988514      -1.48070065       0.00000000
Si       1.38477543      -0.00781920       3.27375950       0.00000000
Si      -0.94952374       0.33910893       3.42217794       0.00000000
Si       2.14571391      -0.33891345      -2.99247846       0.00000000
Si      -2.69186941       2.46808161       1.23918872       0.00000000
Si      -0.62817335       3.62263536       1.17234351       0.00000000
