10
Lattice="16.28999089631971 0.0 0.0 0.0 16.28999089631971 0.0 0.0 0.0 34.49183129400761" Properties=species:S:1:pos:R:3:initial_magmoms:R:1 pbc="T T T"
Si      -1.26631455       0.95320935      -1.81992800       0.00000000
Si       1.43815613      -1.71668907      -0.91962172       0.00000000
Si       1.37587946       1.47957183       1.40140389       0.00000000
Si      -1.47570295      -1.39794264       1.58524545       0.00000000
Si      -1.40766533      -1.11615822      -3.07080946       0.00000000
Si       0.92663384      -1.46308635      -3.21922789       0.00000000
Si      -1.48000907      -3.43974753       0.10620041       0.00000000
Si       1.23282068       3.56584842       0.22668044       0.00000000
Si       0.86098514      -3.73067064       0.10851136       0.00000000
Si       3.59060270       0.30911904       1.40868167       0.00000000
