10
Lattice="16.28999089631971 0.0 0.0 0.0 16.28999089631971 0.0 0.0 0.0 34.49183129400761" Properties=species:S:1:pos:R:3:initial_magmoms:R:1 pbc="T T T"
Si       0.70910370      -1.32664131      -1.75956726       0.00000000
Si       0.57717099       2.01398157      -1.02813308       0.00000000
Si      -2.34099422       0.29092311      -0.00231095       0.00000000
Si       1.48994856      -0.21799278       1.90532983       0.00000000
Si      -2.65498397      -2.03023899       1.09608203       0.00000000
Si       3.01852071      -1.11956283      -1.51998687       0.00000000
Si      -2.33668810       2.33272800       1.47673409       0.00000000
Si       0.15221376      -3.54649590      -1.09135664       0.00000000
Si       2.25771255      -2.45415366       1.83658757       0.00000000
Si      -0.86098514       3.73067064      -0.10851136       0.00000000
