10
Lattice="16.28999089631971 0.0 0.0 0.0 16.28999089631971 0.0 0.0 0.0 34.49183129400761" Properties=species:S:1:pos:R:3:initial_magmoms:R:1 pbc="T T T"
Si       0.72111757       1.90308318       1.11092939       0.00000000
Si      -1.99473561      -0.78773553       0.97751836       0.00000000
Si       1.82680784      -1.59257556      -0.40042214       0.00000000
Si      -0.57765222      -2.04428097       2.52736828       0.00000000
Si       2.17728719       0.66577967       2.52247733       0.00000000
Si       0.78133193      -3.38222754       1.09172778       0.00000000
Si       2.18062664       2.88522683      -0.48606541       0.00000000
Si       3.71217986      -0.61633215       0.94592383       0.00000000
Si       0.80515931      -0.69195033       3.90245143       0.00000000
Si      -3.29159880      -2.39243085      -0.32629915       0.00000000
