10
Lattice="16.28999089631971 0.0 0.0 0.0 16.28999089631971 0.0 0.0 0.0 34.49183129400761" Properties=species:S:1:pos:R:3:initial_magmoms:R:1 pbc="T T T"
Si      -0.87451236       0.96822451      -1.94278798       0.00000000
Si      -1.07110497      -2.09054457       0.05153082       0.00000000
Si       2.26908297       0.14359635      -0.61278222       0.00000000
Si      -0.14214654       1.05241938       2.10655528       0.00000000
Si       0.53514279       0.02259423      -3.63333705       0.00000000
Si       2.68314219       2.52116162      -0.61454130       0.00000000
Si       0.16542495      -3.44644272      -1.51874516       0.00000000
Si      -3.28631921      -1.65221325      -0.91617253       0.00000000
Si      -0.49818078       3.28879529      -1.83403517       0.00000000
Si      -2.31872349       0.69560322       2.92773726       0.00000000
