10
Lattice="16.290000149 0.0 0.0 0.0 16.290000149 0.0 0.0 0.0 29.1751946751" Properties=species:S:1:pos:R:3:initial_magmoms:R:1 pbc="T T T"
Si      -0.71272009       2.03621418       0.78011553       0.00000000
Si       2.04496517      -0.62534867       0.91627616       0.00000000
Si      -1.25667577      -1.77970206       0.81848091       0.00000000
Si      -0.64171198      -0.68471432      -2.14248042       0.00000000
Si      -0.67906495      -2.83643437      -1.16989613       0.00000000
H        0.67857625       2.30631867      -2.12170768       0.00000000
Si      -1.32457249       1.51265358       2.96422895       0.00000000
Si       1.06328089       3.50627266       0.44334626       0.00000000
Si      -3.54947700       0.78980111      -0.75709630       0.00000000
Si       1.51001785      -1.89306418       2.84534004       0.00000000
