10
Lattice="16.290000149 0.0 0.0 0.0 16.290000149 0.0 0.0 0.0 29.1751946751" Properties=species:S:1:pos:R:3:initial_magmoms:R:1 pbc="T T T"
Si       1.38166894      -1.34473951      -1.33677824       0.00000000
Si      -1.29777544       1.30266244      -1.46048107       0.00000000
Si       1.38763108       1.35772264       1.33266454       0.00000000
Si      -1.35009892      -1.39157326       1.34290504       0.00000000
Si      -2.77677714       0.05172075       2.46938848       0.00000000
Si      -2.65878866       2.67291209      -0.19766194       0.00000000
Si       2.71893134      -0.01202202       2.66308259       0.00000000
Si       0.01642032      -2.68522733      -2.70847920       0.00000000
Si      -2.70918992      -2.70014897      -0.04624268       0.00000000
Si       2.72531878       0.02728575      -2.69917231       0.00000000
