10
Lattice="16.290000149 0.0 0.0 0.0 16.290000149 0.0 0.0 0.0 29.1751946751" Properties=species:S:1:pos:R:3:initial_magmoms:R:1 pbc="T T T"
Si      -0.91127075       0.81263317       2.00416082       0.00000000
Si       1.35720951       1.39157978      -1.34585173       0.00000000
Si      -1.86671184      -0.96990824      -1.08152447       0.00000000
Si       1.85387532      -1.16915937       0.93273097       0.00000000
H        2.64270229       1.43460167      -0.52900463       0.00000000
H       -3.05904211      -0.03212225      -0.92365749       0.00000000
Si       0.54763723      -2.60536724       2.27931208       0.00000000
Si       1.98215907      -0.13229761      -3.08991569       0.00000000
Si       0.42751313       2.79302478       2.47583620       0.00000000
Si      -0.62022025      -1.01414943       3.56996435       0.00000000
