10
Lattice="16.290000149 0.0 0.0 0.0 16.290000149 0.0 0.0 0.0 29.1751946751" Properties=species:S:1:pos:R:3:initial_magmoms:R:1 pbc="T T T"
Si      -1.30466611       1.37893222      -1.37546455       0.00000000
Si       1.37951378       1.36096435       1.33424000       0.00000000
Si       1.39557734      -1.33820559      -1.34812740       0.00000000
Si      -1.38318391      -1.33514796       1.38249577       0.00000000
Si       0.08800440      -2.62578480       2.65310468       0.00000000
Si      -2.67773393      -0.00563634      -2.68449719       0.00000000
Si      -2.62676252       2.74950768      -0.00055433       0.00000000
Si       0.02479338      -2.71081892      -2.67769937       0.00000000
Si      -2.61241103       0.09501957       2.80175230       0.00000000
Si       2.72736957       0.02552643       2.70929610       0.00000000
