10
Lattice="16.290000149 0.0 0.0 0.0 16.290000149 0.0 0.0 0.0 29.1751946751" Properties=species:S:1:pos:R:3:initial_magmoms:R:1 pbc="T T T"
Si      -2.20169126       0.73617769       0.43783215       0.00000000
Si      -0.31835547      -2.02893581       1.19066887       0.00000000
Si       1.55761723       1.33089301       1.20114276       0.00000000
Si      -0.29781378       0.90023428      -2.24284309       0.00000000
H        2.22467645      -0.92167192      -1.62750906       0.00000000
H        0.79097725      -1.83555722      -2.19371206       0.00000000
H        1.61223760      -2.53172666      -0.51818063       0.00000000
H        0.87343723      -2.68048694       1.85752629       0.00000000
Si      -2.16433829       2.88789774      -0.53475214       0.00000000
Si      -2.42898563      -0.06089202      -2.93178614       0.00000000
