10
Lattice="16.290000149 0.0 0.0 0.0 16.290000149 0.0 0.0 0.0 29.1751946751" Properties=species:S:1:pos:R:3:initial_magmoms:R:1 pbc="T T T"
Si       1.36541152       1.35542575       1.34678534       0.00000000
Si       1.36871839      -1.36484137      -1.33549454       0.00000000
Si      -1.34770429      -1.34793235       1.37750682       0.00000000
Si      -1.35024553       1.35953083      -1.36446550       0.00000000
Si      -0.00812871       2.72137484       2.67851627       0.00000000
Si       2.72036486       0.01026270      -2.68160884       0.00000000
Si       2.71678106      -0.02049282       2.68878594       0.00000000
Si      -2.69718419      -2.70969491       0.02827076       0.00000000
Si       0.02050911      -2.72137484      -2.69730510       0.00000000
Si      -2.71072118       0.00493587      -2.71775691       0.00000000
