10
Lattice="16.290000149 0.0 0.0 0.0 16.290000149 0.0 0.0 0.0 29.1751946751" Properties=species:S:1:pos:R:3:initial_magmoms:R:1 pbc="T T T"
Si      -1.39642768       1.28335879      -1.35693830       0.00000000
Si       1.44171388      -1.37060803      -1.22670024       0.00000000
Si      -1.36862065      -1.31719312       1.36373612       0.00000000
Si       0.87114034       1.89014501       1.06897913       0.00000000
Si      -2.43533873       0.14581179       2.83378666       0.00000000
Si       0.05831820      -2.72111420      -2.56607507       0.00000000
Si      -0.00944820       2.62001846      -2.69307469       0.00000000
Si      -2.58031973       2.73494442       0.05388658       0.00000000
Si       2.78194107      -0.03710862      -2.59901387       0.00000000
Si      -2.74624968      -0.06012639      -2.66775063       0.00000000
