10
Lattice="16.290000149 0.0 0.0 0.0 16.290000149 0.0 0.0 0.0 29.1751946751" Properties=species:S:1:pos:R:3:initial_magmoms:R:1 pbc="T T T"
Si       1.54106659      -1.26141616      -1.20554822       0.00000000
Si       1.39533625       1.31846374       1.37044350       0.00000000
Si      -1.21448467      -1.43387839       1.44439970       0.00000000
Si      -1.47491290       1.20853882      -1.45260377       0.00000000
H        0.36869157      -1.76770937      -2.29795503       0.00000000
Si      -2.66703140       2.68232771      -0.01870130       0.00000000
Si       2.85911266       2.49311936      -0.04180805       0.00000000
Si      -2.64432314      -0.06063138       2.72943282       0.00000000
Si      -0.14822271       2.53954586      -2.84919116       0.00000000
Si       0.06858090       2.76480399       2.68156508       0.00000000
