10
Lattice="16.290000149 0.0 0.0 0.0 16.290000149 0.0 0.0 0.0 29.1751946751" Properties=species:S:1:pos:R:3:initial_magmoms:R:1 pbc="T T T"
Si      -0.82567495       1.23786245      -1.71986022       0.00000000
Si      -1.83068651      -1.01529055       0.95150229       0.00000000
Si       1.03865041       1.85299566       0.95307484       0.00000000
Si       1.73480357      -1.54701244      -0.46661202       0.00000000
H       -1.00471834       2.63147033      -1.12051420       0.00000000
Si      -0.42492465      -2.38493747       2.19971048       0.00000000
Si       1.47795913      -1.05389785      -2.77810288       0.00000000
Si       2.45540801       0.50874257       2.20581393       0.00000000
Si       1.06810273       1.24362585      -3.06725824       0.00000000
Si       0.99668737      -0.92564668       3.42451433       0.00000000
