10
Lattice="16.290000149 0.0 0.0 0.0 16.290000149 0.0 0.0 0.0 29.1751946751" Properties=species:S:1:pos:R:3:initial_magmoms:R:1 pbc="T T T"
Si      -1.38166894       1.34473951       1.33677824       0.00000000
Si      -1.36524862      -1.34048782      -1.37170095       0.00000000
Si       1.34364984       1.37202526      -1.36239407       0.00000000
Si       1.34465925      -1.36482508       1.37135085       0.00000000
Si      -2.67944438       2.64740195      -0.12370283       0.00000000
Si       2.66332380      -2.70303230      -0.03323055       0.00000000
Si       0.00596214       2.70246215       2.66944279       0.00000000
Si      -2.73176787      -0.04683375       2.67968328       0.00000000
Si       2.73462839       0.01151703       2.68327183       0.00000000
Si      -0.01912446      -2.68900661      -2.73820872       0.00000000
