10
Lattice="16.290000149 0.0 0.0 0.0 16.290000149 0.0 0.0 0.0 29.1751946751" Properties=species:S:1:pos:R:3:initial_magmoms:R:1 pbc="T T T"
Si       0.85553452      -1.40827051       1.60915786       0.00000000
Si      -2.23497173       0.50251392      -0.28970968       0.00000000
Si       0.57761083      -1.05673231      -1.98837704       0.00000000
Si       1.25667577       1.77970206      -0.81848091       0.00000000
H       -0.15894153      -1.47729124       2.73686666       0.00000000
Si       0.61496380       1.09498775      -2.96096133       0.00000000
Si       2.76669363      -0.11336211       2.02685912       0.00000000
Si       3.30164094       1.15435339       0.09779525       0.00000000
Si      -1.06365556      -2.72606636      -2.05145381       0.00000000
Si       1.15685065       1.42563077       3.10141072       0.00000000
