10
Lattice="16.290000149 0.0 0.0 0.0 16.290000149 0.0 0.0 0.0 29.1751946751" Properties=species:S:1:pos:R:3:initial_magmoms:R:1 pbc="T T T"
Si       1.42812802       1.38727270       1.18034085       0.00000000
Si      -1.31989726       1.44034552      -1.27615219       0.00000000
Si       1.43314534      -1.32291091      -1.28198723       0.00000000
Si      -1.38697948      -1.33665967       1.33613639       0.00000000
Si       0.05574438      -2.66313809      -2.61400992       0.00000000
Si      -2.66916539       0.07872957      -2.62427959       0.00000000
Si       0.00944820      -2.62001846       2.69307469       0.00000000
Si      -2.57087153       0.11492595       2.74696128       0.00000000
Si       2.72380205       0.09474264       2.60969199       0.00000000
Si       0.06835284       2.79992523      -2.58877337       0.00000000
