10
Lattice="16.290000149 0.0 0.0 0.0 16.290000149 0.0 0.0 0.0 29.1751946751" Properties=species:S:1:pos:R:3:initial_magmoms:R:1 pbc="T T T"
Si      -1.65656270       1.70093666       0.24405050       0.00000000
Si       0.39324060      -0.19854252       2.35411728       0.00000000
Si       1.64268361       1.05090049      -1.43585721       0.00000000
Si      -1.06539859      -1.70178374      -1.37628146       0.00000000
H        1.93282318      -1.55040076       0.19276051       0.00000000
H        0.52730730       2.48321504       1.35101574       0.00000000
H       -1.00626589       0.18292041       2.81741937       0.00000000
Si      -2.37918710      -0.29292678      -2.77849966       0.00000000
Si       0.36005787       2.46830969      -2.79848467       0.00000000
Si      -3.50661801       0.84031966      -1.04525970       0.00000000
