10
Lattice="16.290000149 0.0 0.0 0.0 16.290000149 0.0 0.0 0.0 29.1751946751" Properties=species:S:1:pos:R:3:initial_magmoms:R:1 pbc="T T T"
H       -0.07534125      -1.04309758      -1.09999236       0.00000000
Si       2.20050372       0.16606026       0.65865919       0.00000000
Si      -0.39731310       2.14975874      -0.87732728       0.00000000
Si      -1.59798385      -0.71040691       1.58079957       0.00000000
H       -1.79681960       2.53122167      -0.41402519       0.00000000
H        1.14226947       0.79790050      -3.03868405       0.00000000
Si      -3.12756600      -1.45512055      -0.02132707       0.00000000
Si       2.97289245      -2.10243629       0.44941470       0.00000000
Si       3.52186545      -0.09234801      -1.24936936       0.00000000
Si      -2.83056672       1.13725378       2.24686927       0.00000000
