10
Lattice="16.290000149 0.0 0.0 0.0 16.290000149 0.0 0.0 0.0 29.1751946751" Properties=species:S:1:pos:R:3:initial_magmoms:R:1 pbc="T T T"
Si       1.37510407      -1.34577230       1.33674907       0.00000000
Si       1.36396171       1.34760004      -1.35016966       0.00000000
Si      -1.35053875      -1.36965344      -1.35107409       0.00000000
Si      -1.34944732       1.35058111       1.37245951       0.00000000
Si       0.02041137      -2.69997630       2.67148505       0.00000000
Si       0.00043983       2.71315817      -2.68508069       0.00000000
Si      -2.73426023      -0.01090941      -2.67236031       0.00000000
Si      -2.71948520       2.69431064       0.00904431       0.00000000
Si       2.72443736       2.69108522       0.01277874       0.00000000
Si       2.72538218      -0.01561885      -2.69616727       0.00000000
