10
Lattice="16.290000149 0.0 0.0 0.0 16.290000149 0.0 0.0 0.0 29.1751946751" Properties=species:S:1:pos:R:3:initial_magmoms:R:1 pbc="T T T"
Si      -1.36396171      -1.34760004       1.35016966       0.00000000
Si      -1.36352188       1.36555813      -1.33491103       0.00000000
Si       1.36047565       1.34348518       1.36294839       0.00000000
Si       1.36142047      -1.36321889      -1.34599761       0.00000000
Si       0.01114236      -2.69337233       2.68691873       0.00000000
Si       2.71054199       0.02357163      -2.68251327       0.00000000
Si       0.00687438       2.72274320      -2.67367319       0.00000000
Si      -2.75019186       0.01570356      -2.65876467       0.00000000
Si       0.00140094       2.69617421       2.71559795       0.00000000
Si      -2.71450046      -2.71725347      -0.00090443       0.00000000
