10
Lattice="16.290000149 0.0 0.0 0.0 16.290000149 0.0 0.0 0.0 29.1751946751" Properties=species:S:1:pos:R:3:initial_magmoms:R:1 pbc="T T T"
Si       1.30879330       1.34197054      -1.36236489       0.00000000
Si      -1.28003563      -1.46639323      -1.28872670       0.00000000
Si      -1.30883635       1.40456079       1.33969576       0.00000000
Si       1.24341571      -1.48219453       1.35880552       0.00000000
H       -1.92987632      -2.28174032      -0.20227162       0.00000000
Si      -2.59693553      -0.02917539       2.62638020       0.00000000
Si       2.53651104       2.70408953       0.08667950       0.00000000
Si      -0.16239501       2.63260738      -2.63297379       0.00000000
Si       2.68524362      -0.05607018      -2.66153631       0.00000000
Si       2.58043539      -2.79138927      -0.05951740       0.00000000
