10
Lattice="16.290000149 0.0 0.0 0.0 16.290000149 0.0 0.0 0.0 29.1751946751" Properties=species:S:1:pos:R:3:initial_magmoms:R:1 pbc="T T T"
Si       1.38955330       1.27218385       1.37849031       0.00000000
Si      -1.63241440       1.18164403      -1.21886349       0.00000000
Si       1.24768369      -1.34645648      -1.48470786       0.00000000
Si      -1.33302049      -1.40817766       1.35424573       0.00000000
Si      -2.97119829      -0.79874758      -1.69053886       0.00000000
Si      -2.68014779      -2.62553019      -0.12473534       0.00000000
Si      -0.02883330       2.65458584       2.66228932       0.00000000
Si       2.60664437      -2.72980166      -0.08339408       0.00000000
Si       2.59270013      -0.12318498       2.82139333       0.00000000
Si      -2.76552716      -0.09927126       2.70324838       0.00000000
