10
Lattice="16.290000149 0.0 0.0 0.0 16.290000149 0.0 0.0 0.0 29.1751946751" Properties=species:S:1:pos:R:3:initial_magmoms:R:1 pbc="T T T"
Si       1.42042285       1.31031874       1.31370067       0.00000000
Si       1.37744983      -1.34840476      -1.32134457       0.00000000
Si      -1.34923555      -1.35827650       1.35189100       0.00000000
Si      -1.36295173       1.39323484      -1.30506481       0.00000000
Si       0.05940963       2.68056839       2.57651979       0.00000000
Si       0.00693954      -2.71000442      -2.64878675       0.00000000
Si       2.72873793       0.04316850      -2.64823242       0.00000000
Si       0.01125639       2.73567747      -2.64729881       0.00000000
Si      -2.71797023       0.03992679      -2.66550414       0.00000000
Si       2.73461862      -2.67757103       0.06570254       0.00000000
