10
Lattice="16.290000149 0.0 0.0 0.0 16.290000149 0.0 0.0 0.0 29.1751946751" Properties=species:S:1:pos:R:3:initial_magmoms:R:1 pbc="T T T"
Si       1.35469270       1.35420400      -1.33473598       0.00000000
Si       1.39694896      -1.44930502       1.19344051       0.00000000
Si      -1.37648872      -1.36531378      -1.33797443       0.00000000
Si      -1.30331404       1.34793235       1.43098495       0.00000000
Si      -0.01671354      -2.77796631       2.43113980       0.00000000
Si       2.66271455       2.66745820       0.11121584       0.00000000
Si      -0.02041137       2.69997630      -2.67148505       0.00000000
Si       2.70625772      -0.03111390      -2.67256453       0.00000000
Si      -2.64574037      -0.02981070       2.74550252       0.00000000
Si      -2.70501968       2.68723426       0.07031222       0.00000000
