10
Lattice="16.290000149 0.0 0.0 0.0 16.290000149 0.0 0.0 0.0 29.1751946751" Properties=species:S:1:pos:R:3:initial_magmoms:R:1 pbc="T T T"
Si       1.36139767       1.34884459      -1.35320388       0.00000000
Si       1.37377807      -1.34159554       1.35329141       0.00000000
Si      -1.33777637       1.36321237       1.37429755       0.00000000
Si      -1.34710633      -1.37951866      -1.35145337       0.00000000
Si      -2.68479402      -0.04908177       2.68038349       0.00000000
Si       2.67111368      -2.70133814      -0.06342687       0.00000000
Si      -0.02862968       2.69716790      -2.68289255       0.00000000
Si      -2.69082132      -0.02254536      -2.72000340       0.00000000
Si       2.67865595      -0.01506825      -2.74386871       0.00000000
Si       2.73005090       0.04075758       2.70296509       0.00000000
