10
Lattice="16.290000149 0.0 0.0 0.0 16.290000149 0.0 0.0 0.0 29.1751946751" Properties=species:S:1:pos:R:3:initial_magmoms:R:1 pbc="T T T"
Si       0.17904339      -1.39360788      -0.59934602       0.00000000
Si      -0.51668622       1.27575136      -2.37092220       0.00000000
Si      -0.70508008       1.82669546       1.94106655       0.00000000
Si      -2.54296676       0.94384261       0.75483231       0.00000000
Si      -2.46024614       0.24780348      -1.47425176       0.00000000
Si       1.20293506       2.61635321       0.81987840       0.00000000
Si       2.04336875      -0.77847467       2.07358903       0.00000000
Si       1.00471834      -2.63147033       1.12051420       0.00000000
Si       2.90835147       0.94899025       0.69093192       0.00000000
Si       2.07282107      -1.38784448      -1.94674404       0.00000000
