10
Lattice="16.290000149 0.0 0.0 0.0 16.290000149 0.0 0.0 0.0 29.1751946751" Properties=species:S:1:pos:R:3:initial_magmoms:R:1 pbc="T T T"
Si       1.29744964      -1.43526304      -1.29594260       0.00000000
Si       1.41998302       1.29507130       1.33666359       0.00000000
Si      -1.29862252      -1.48807522       1.26703990       0.00000000
Si      -1.27606087       1.49302738      -1.34279796       0.00000000
Si       2.55238238       0.06882525      -2.59829412       0.00000000
Si      -2.68224626      -0.11429064       2.61468007       0.00000000
Si       0.03565881       2.65162106       2.65725543       0.00000000
Si      -2.62598060       0.14229315      -2.68602393       0.00000000
Si      -2.72385092       2.68755680       0.00888297       0.00000000
Si      -0.07345161      -2.45931761      -2.93518009       0.00000000
