10
Lattice="16.290000149 0.0 0.0 0.0 16.290000149 0.0 0.0 0.0 29.1751946751" Properties=species:S:1:pos:R:3:initial_magmoms:R:1 pbc="T T T"
Si       1.35338950       1.28576971      -1.36802488       0.00000000
Si      -1.52528158       1.25955910       1.22276158       0.00000000
Si       1.03511548      -0.82401337       1.94936981       0.00000000
Si      -1.40382334      -1.39984858      -1.30074688       0.00000000
Si      -0.77892265      -2.12633372       2.60452798       0.00000000
Si      -2.43511067      -0.47385981       2.50819149       0.00000000
Si       2.60892497       2.60179484       0.10500153       0.00000000
Si      -0.07387515       2.64673406      -2.66471641       0.00000000
Si       2.71829603      -0.08749359      -2.70985043       0.00000000
Si      -2.75535579      -0.04846275      -2.68271750       0.00000000
