10
Lattice="16.290000149 0.0 0.0 0.0 16.290000149 0.0 0.0 0.0 29.1751946751" Properties=species:S:1:pos:R:3:initial_magmoms:R:1 pbc="T T T"
Si      -0.94328875       1.88788070      -0.89130220       0.00000000
Si      -1.77600098      -1.47005848       0.33676927       0.00000000
Si       0.39288222       0.63312715       2.23266095       0.00000000
Si       1.77298733      -0.95840587      -1.24931101       0.00000000
H       -0.38470464      -1.19995399      -2.56505394       0.00000000
H        0.02425581       3.00418554       0.44416316       0.00000000
Si       1.88434577      -1.22518720       2.59037801       0.00000000
Si       2.51164109      -2.28584540       0.54192924       0.00000000
Si      -2.46267335       0.87074938      -2.35382553       0.00000000
Si      -1.06328089      -3.50627266      -0.44334626       0.00000000
