10
Lattice="16.290000149 0.0 0.0 0.0 16.290000149 0.0 0.0 0.0 29.1751946751" Properties=species:S:1:pos:R:3:initial_magmoms:R:1 pbc="T T T"
Si       1.38432421      -1.35654976      -1.32059185       0.00000000
Si       1.33830496       1.32475168       1.40328018       0.00000000
Si      -1.35298225      -1.39865941       1.31878882       0.00000000
Si      -1.33066495       1.39387015      -1.36975205       0.00000000
Si      -0.03565881      -2.65162106      -2.65725543       0.00000000
Si       2.70524774       0.05082480      -2.65864942       0.00000000
Si      -2.65896785       2.71000442       0.04844541       0.00000000
Si      -2.70508484      -0.02756268       2.67461847       0.00000000
Si      -2.75950974       0.03593574      -2.64837246       0.00000000
Si       2.68628618       2.72211365       0.09375741       0.00000000
