10
Lattice="16.290000149 0.0 0.0 0.0 16.290000149 0.0 0.0 0.0 29.1751946751" Properties=species:S:1:pos:R:3:initial_magmoms:R:1 pbc="T T T"
H        0.84282832       0.94016107       0.80520620       0.00000000
Si       1.42667821      -1.44329401      -1.12648344       0.00000000
Si      -1.29567403       1.29253006      -1.42935114       0.00000000
Si      -1.84321352      -0.82461610       1.15236184       0.00000000
H        1.66408868       0.24399162       2.48073763       0.00000000
H        2.27652752       1.85404637       1.37140920       0.00000000
Si      -2.37713456       2.71482626       0.06713212       0.00000000
Si       2.77677714      -0.05172075      -2.46938848       0.00000000
Si      -1.22266225      -1.23592231       3.29866421       0.00000000
Si       0.06758721      -2.75186973      -2.51563116       0.00000000
