10
Lattice="16.290000149 0.0 0.0 0.0 16.290000149 0.0 0.0 0.0 29.1751946751" Properties=species:S:1:pos:R:3:initial_magmoms:R:1 pbc="T T T"
Si      -1.39736599       1.32120046       1.31658901       0.00000000
Si       1.36768235      -1.23745357       1.44638945       0.00000000
Si       1.32990584       1.39843135      -1.34092112       0.00000000
Si      -1.38996914      -1.37634211      -1.31192098       0.00000000
Si       2.56765263      -2.64222173      -0.02567417       0.00000000
Si      -0.10623524       2.72934065       2.63705832       0.00000000
Si       2.62724145       0.03868875      -2.75763940       0.00000000
Si       0.00350724      -2.66400146       2.74903272       0.00000000
Si      -2.73462839      -0.01151703      -2.68327183       0.00000000
Si      -2.72866625       2.69094512      -0.01382904       0.00000000
