10
Lattice="16.290000149 0.0 0.0 0.0 16.290000149 0.0 0.0 0.0 29.1751946751" Properties=species:S:1:pos:R:3:initial_magmoms:R:1 pbc="T T T"
Si      -1.67233467      -0.78732829       1.44067111       0.00000000
Si       1.11042415       1.69521887       1.25855955       0.00000000
Si      -0.51517451       0.70866388      -2.22259551       0.00000000
Si       1.40579117      -1.95831866      -0.01108657       0.00000000
H       -2.84470969      -1.29362149       0.34826430       0.00000000
Si       2.46229542       0.28457001       2.57141413       0.00000000
Si       0.88558794      -2.85614202      -2.11164224       0.00000000
Si       3.46338109      -0.95816152       0.72739595       0.00000000
Si      -0.53498315      -2.29241027       2.82492440       0.00000000
H        2.87218441      -0.37898685      -2.37701981       0.00000000
