10
Lattice="16.290000149 0.0 0.0 0.0 16.290000149 0.0 0.0 0.0 29.1751946751" Properties=species:S:1:pos:R:3:initial_magmoms:R:1 pbc="T T T"
Si      -1.31401657       1.32353645       1.40027806       0.00000000
Si       0.99142570       1.78314251      -1.15524143       0.00000000
Si       1.38417760      -1.32164432       1.36700666       0.00000000
Si      -1.30007233      -1.28308023      -1.50450936       0.00000000
Si      -2.51716340       2.71890528      -0.04262496       0.00000000
Si       1.07414632       1.08710339      -3.38432550       0.00000000
Si      -2.63277353      -2.64988781      -0.09650279       0.00000000
Si      -0.64174456       3.51893977      -1.23754845       0.00000000
Si       0.11582190       2.72599143       2.64283209       0.00000000
Si       0.03619638      -2.71900628       2.67652944       0.00000000
