10
Lattice="16.290000149 0.0 0.0 0.0 16.290000149 0.0 0.0 0.0 29.1751946751" Properties=species:S:1:pos:R:3:initial_magmoms:R:1 pbc="T T T"
Si       1.47118831      -1.29063684       1.27060890       0.00000000
Si      -1.39869199      -1.41955623      -1.25677986       0.00000000
Si      -1.22922712       1.43016753       1.41925652       0.00000000
Si       1.38318391       1.33514796      -1.38249577       0.00000000
Si       0.16239501      -2.63260738       2.63297379       0.00000000
Si      -2.58457142       2.73496396      -0.01111575       0.00000000
Si      -2.66025476      -0.03043949      -2.68998212       0.00000000
Si       0.02904507      -2.70162811      -2.67063897       0.00000000
Si       2.69890605       0.07148215       2.71965330       0.00000000
Si       2.76269769       2.69611231      -0.04825577       0.00000000
