10
Lattice="16.290000149 0.0 0.0 0.0 16.290000149 0.0 0.0 0.0 29.1751946751" Properties=species:S:1:pos:R:3:initial_magmoms:R:1 pbc="T T T"
Si       1.37306782       1.38456856       1.30903263       0.00000000
Si       1.36961434      -1.34045524      -1.36572004       0.00000000
Si      -1.32439330       1.36365220      -1.39291132       0.00000000
Si      -1.36570474      -1.35995111       1.37701084       0.00000000
Si      -2.67372659      -2.67320531      -0.06894098       0.00000000
Si       2.67773393       0.00563634       2.68449719       0.00000000
Si      -2.68346801       2.71634123      -0.04026177       0.00000000
Si       2.70252731      -2.70518258       0.00679782       0.00000000
Si      -2.68853420       0.03518640       2.74039686       0.00000000
Si       0.05097141       2.75514402       2.68394286       0.00000000
