10
Lattice="16.290000149 0.0 0.0 0.0 16.290000149 0.0 0.0 0.0 29.1751946751" Properties=species:S:1:pos:R:3:initial_magmoms:R:1 pbc="T T T"
Si       0.71272009      -2.03621418      -0.78011553       0.00000000
Si      -1.81651421       0.90582175      -1.13946640       0.00000000
Si      -0.61185241      -0.52356060       2.18411342       0.00000000
Si       1.77600098       1.47005848      -0.33676927       0.00000000
H        1.39129633       0.27010449      -2.90182321       0.00000000
Si       0.17301609       1.51501888       3.06587533       0.00000000
Si      -2.83675692      -1.24641307      -1.53721183       0.00000000
Si       2.16888320       2.10318563       1.89589168       0.00000000
Si      -0.68667238       2.34080786      -2.69059480       0.00000000
Si       0.83271223       3.35793918      -1.22807147       0.00000000
