10
Lattice="16.290000149 0.0 0.0 0.0 16.290000149 0.0 0.0 0.0 29.1751946751" Properties=species:S:1:pos:R:3:initial_magmoms:R:1 pbc="T T T"
Si       0.51517451      -0.70866388       2.22259551       0.00000000
Si       1.17326445       2.03027159      -0.60678570       0.00000000
Si      -2.02615022       1.36101322       0.06590676       0.00000000
Si      -1.19705437      -1.58110741      -1.42503321       0.00000000
Si       2.19699974      -1.44606331      -1.05380803       0.00000000
H       -1.06298767       1.10065015      -2.42813475       0.00000000
H       -2.59656086      -1.19964448      -0.96173112       0.00000000
H       -1.60109524       2.66093894      -0.59354016       0.00000000
Si      -0.00097740       2.18919683      -2.62267495       0.00000000
H        3.38735892      -1.08765073      -0.15442431       0.00000000
