10
Lattice="16.290000149 0.0 0.0 0.0 16.290000149 0.0 0.0 0.0 29.1751946751" Properties=species:S:1:pos:R:3:initial_magmoms:R:1 pbc="T T T"
Si      -1.36322856      -1.39274614      -1.32040804       0.00000000
Si       1.29481718      -1.35161389       1.43244371       0.00000000
Si      -1.34885534       1.32673906       1.40767397       0.00000000
Si       1.37346530       1.36111096      -1.36136710       0.00000000
Si      -2.66150258      -2.68562644       0.15051483       0.00000000
Si      -2.81210363      -0.00794952      -2.54990034       0.00000000
Si       0.06927811      -2.70165254      -2.66941069       0.00000000
Si       2.69417706       2.70168023       0.03384323       0.00000000
Si       2.65034067      -2.74775650       0.14444639       0.00000000
Si      -2.68087139       2.73360863       0.09741598       0.00000000
