10
Lattice="16.290000149 0.0 0.0 0.0 16.290000149 0.0 0.0 0.0 29.1751946751" Properties=species:S:1:pos:R:3:initial_magmoms:R:1 pbc="T T T"
Si      -1.34827444      -1.02403828       1.63121431       0.00000000
Si       1.22922712      -1.43016753      -1.41925652       0.00000000
Si      -1.35534430       1.30479643      -1.43037227       0.00000000
Si       1.42646644       1.27128790       1.40726552       0.00000000
Si       0.08278578      -2.65821412       2.55341304       0.00000000
Si      -0.06631659       2.53249229       2.69400830       0.00000000
Si       2.72312879       2.62728380      -0.04218733       0.00000000
Si      -1.44928873       0.69763555       3.44071823       0.00000000
Si      -2.74491390       2.66098781      -0.11778026       0.00000000
Si       2.61241103      -0.09501957      -2.80175230       0.00000000
