10
Lattice="16.290000149 0.0 0.0 0.0 16.290000149 0.0 0.0 0.0 29.1751946751" Properties=species:S:1:pos:R:3:initial_magmoms:R:1 pbc="T T T"
Si      -1.37078396      -1.37261333      -1.32957197       0.00000000
Si       1.34726772       1.35345303      -1.37584383       0.00000000
Si       1.40721492      -1.33762690       1.33173094       0.00000000
Si      -1.39557734       1.33820559       1.34812740       0.00000000
Si      -0.01606357       2.69916995       2.68236740       0.00000000
Si       0.06887738      -2.68561992       2.70206065       0.00000000
Si      -2.70369694      -0.00788599      -2.70208983       0.00000000
Si      -2.70024346       2.71713782      -0.02733716       0.00000000
Si      -0.00219752      -2.71308486      -2.71008383       0.00000000
Si       2.70347539       2.72143838      -0.03839456       0.00000000
