10
Lattice="16.290000149 0.0 0.0 0.0 16.290000149 0.0 0.0 0.0 29.1751946751" Properties=species:S:1:pos:R:3:initial_magmoms:R:1 pbc="T T T"
Si       1.43567029       1.33421617       1.21412573       0.00000000
Si      -1.24251976       1.38412873      -1.37695249       0.00000000
Si       1.51677820      -1.32022306      -1.20102606       0.00000000
Si      -1.16595676      -1.44123659       1.50158892       0.00000000
H        2.07591617       0.48343833       2.28666423       0.00000000
Si       2.50615136      -2.18647151       0.77880265       0.00000000
Si       0.75562795      -2.50759466       2.26589149       0.00000000
Si      -0.00205254       2.55414170       2.49789264       0.00000000
Si      -2.42149223      -2.75726172       0.02856252       0.00000000
Si      -2.53949699      -0.05004288      -2.68986542       0.00000000
