10
Lattice="16.290000149 0.0 0.0 0.0 16.290000149 0.0 0.0 0.0 29.1751946751" Properties=species:S:1:pos:R:3:initial_magmoms:R:1 pbc="T T T"
Si       1.35967744      -1.35664750       1.30054265       0.00000000
Si       1.36866952       1.25227747      -1.43579886       0.00000000
Si      -1.31167081      -1.42996879      -1.32198642       0.00000000
Si      -1.19997028       1.40476816       1.47206362       0.00000000
Si      -2.56765263       2.64222173       0.02567417       0.00000000
Si       2.71849151       2.59576265      -0.12498653       0.00000000
Si      -2.63895722      -0.07232760      -2.69082820       0.00000000
Si      -2.56414539      -0.02177973       2.77470689       0.00000000
Si       2.74629855      -0.00478926       2.59568790       0.00000000
Si       0.01257588      -2.66623319       2.68913604       0.00000000
