10
Lattice="16.290000149 0.0 0.0 0.0 16.290000149 0.0 0.0 0.0 29.1751946751" Properties=species:S:1:pos:R:3:initial_magmoms:R:1 pbc="T T T"
Si      -1.75052342      -0.32112314       1.48708885       0.00000000
Si       0.11600109      -2.30878661      -0.22100210       0.00000000
Si      -0.98937316       0.86624845      -1.97982871       0.00000000
Si       1.82847107       1.18978414       1.01410059       0.00000000
H       -0.43023519       2.66990985       1.50786159       0.00000000
Si      -2.50615136       2.18647151      -0.77880265       0.00000000
Si       1.71217676      -2.22785789      -2.01769811       0.00000000
Si      -1.07048107       3.52068769       0.43532308       0.00000000
Si      -1.10881144       0.36359117       3.62956927       0.00000000
Si       0.41381487      -3.20902089       2.02184099       0.00000000
