10
Lattice="16.28999089631971 0.0 0.0 0.0 16.28999089631971 0.0 0.0 0.0 34.51877397758722" Properties=species:S:1:pos:R:3:initial_magmoms:R:1 pbc="T T T"
Si      -1.34169394      -1.35185285      -1.38427265       0.00000000
Si       1.37356303       1.36524535      -1.38399650       0.00000000
Si       1.42469734      -1.33219099       1.44026213       0.00000000
Si      -1.49499913       1.30870276       1.42918160       0.00000000
Si       2.47416430       0.21096853       2.89184642       0.00000000
Si      -2.70114331      -2.71503216       0.00856066       0.00000000
Si      -2.70713803       2.72075254      -0.02878867       0.00000000
Si       2.73485317      -2.69765073      -0.02150521       0.00000000
Si       2.73053632       2.71659859      -0.00510878       0.00000000
Si      -2.70313069       0.00694443      -2.74610808       0.00000000
