10
Lattice="16.28999089631971 0.0 0.0 0.0 16.28999089631971 0.0 0.0 0.0 34.51877397758722" Properties=species:S:1:pos:R:3:initial_magmoms:R:1 pbc="T T T"
Si      -2.28841757      -0.10744884      -0.56793771       0.00000000
Si       0.89119332      -1.56514320      -1.55904130       0.00000000
Si       0.95319306       2.21437205       0.25906354       0.00000000
Si       0.26259480      -2.05915374       1.76732770       0.00000000
Si      -1.43254912      -2.12172363      -1.62842407       0.00000000
Si       2.56422519       1.11050626       1.70709240       0.00000000
Si       1.24502841      -0.39913758       3.13867102       0.00000000
Si      -2.93112779       0.67668660       1.71323675       0.00000000
Si       2.60159445      -2.89167048      -0.67981311       0.00000000
Si      -0.45805851       3.52687364       1.73629530       0.00000000
