10
Lattice="16.28999089631971 0.0 0.0 0.0 16.28999089631971 0.0 0.0 0.0 34.51877397758722" Properties=species:S:1:pos:R:3:initial_magmoms:R:1 pbc="T T T"
Si       1.04946696       1.54315952       1.45158429       0.00000000
Si       1.31015583      -1.36545975      -1.46176734       0.00000000
Si      -1.42469734       1.33219099      -1.44026213       0.00000000
Si      -0.32123880      -1.67985675       1.82500860       0.00000000
Si       2.66519061       2.61300527      -0.01615480       0.00000000
Si       2.77347024      -2.59722810      -0.07242043       0.00000000
Si       2.66027103      -0.01791837      -2.83209439       0.00000000
Si      -0.05113431       2.69743634      -2.82425863       0.00000000
Si      -0.05870916      -2.73124593      -2.82805569       0.00000000
Si      -2.91969647       2.64089375      -0.01108053       0.00000000
