10
Lattice="16.28999089631971 0.0 0.0 0.0 16.28999089631971 0.0 0.0 0.0 34.51877397758722" Properties=species:S:1:pos:R:3:initial_magmoms:R:1 pbc="T T T"
Si       0.28864251       0.38934240       2.28700813       0.00000000
Si       2.02491216      -0.80155874      -0.87132338       0.00000000
Si      -1.87809039      -1.41535569      -0.15278018       0.00000000
Si      -0.58147155       2.04723761      -1.16549254       0.00000000
Si       3.32332290       0.84410707       0.29834593       0.00000000
Si       1.97573265       2.00147900       1.99052621       0.00000000
Si      -0.34197597       1.08650227      -3.28598201       0.00000000
Si      -3.34060659      -0.04510375       1.06763176       0.00000000
Si       1.64625111      -0.24835408      -3.17880115       0.00000000
Si      -1.98392652       0.82661162       2.88597823       0.00000000
