10
Lattice="16.28999089631971 0.0 0.0 0.0 16.28999089631971 0.0 0.0 0.0 34.51877397758722" Properties=species:S:1:pos:R:3:initial_magmoms:R:1 pbc="T T T"
Si       1.46251620      -1.37025194      -1.22041194       0.00000000
Si      -1.62859275      -1.66242938       0.30107291       0.00000000
Si      -1.00898631       1.88428548      -1.04260563       0.00000000
Si       1.35668007       0.87171537       1.81834647       0.00000000
Si       3.34060659       0.04510375      -1.06763176       0.00000000
Si      -1.65420063      -1.76217305       2.63202347       0.00000000
Si       0.85139685       3.30522960      -1.46459788       0.00000000
Si      -2.57315700       2.80898733       0.47846499       0.00000000
Si       3.62924910       0.43444616       1.21937637       0.00000000
Si      -3.77598290      -0.89020193      -0.13213794       0.00000000
