10
Lattice="16.28999089631971 0.0 0.0 0.0 16.28999089631971 0.0 0.0 0.0 34.51877397758722" Properties=species:S:1:pos:R:3:initial_magmoms:R:1 pbc="T T T"
Si      -1.35519768       1.35615879      -1.36294003       0.00000000
Si       1.37630952       1.32952464       1.37046513       0.00000000
Si       1.35913986      -1.36109466      -1.36224966       0.00000000
Si      -1.35325917      -1.36635633       1.37909483       0.00000000
Si       0.05462037       2.72098386       2.69370855       0.00000000
Si      -2.71560816       2.71065600      -0.00034519       0.00000000
Si       2.71316466      -2.71450044      -0.00107008       0.00000000
Si      -2.71023246      -2.71770957       0.00020711       0.00000000
Si       2.71779102       2.71169856      -0.00272698       0.00000000
Si       0.00182448       2.71184517      -2.71949409       0.00000000
