10
Lattice="16.28999089631971 0.0 0.0 0.0 16.28999089631971 0.0 0.0 0.0 34.51877397758722" Properties=species:S:1:pos:R:3:initial_magmoms:R:1 pbc="T T T"
Si      -0.94226247      -1.87628220       1.21789206       0.00000000
Si       1.10449458       1.59953139       1.45897132       0.00000000
Si       1.39644396      -1.26644976      -1.59473373       0.00000000
Si      -1.30360725       1.41076287      -1.60750568       0.00000000
Si       2.70324405      -2.67006132      -0.19510022       0.00000000
Si      -2.67382431      -2.72090241      -0.16965987       0.00000000
Si      -2.62529640       2.80222209      -0.28426226       0.00000000
Si       1.00102050      -3.54920004       1.15593083       0.00000000
Si       2.62953180       2.84555349       0.03224055       0.00000000
Si       0.03324789      -2.63326221      -2.97904090       0.00000000
