10
Lattice="16.28999089631971 0.0 0.0 0.0 16.28999089631971 0.0 0.0 0.0 34.51877397758722" Properties=species:S:1:pos:R:3:initial_magmoms:R:1 pbc="T T T"
Si      -1.64453186      -1.62965323       0.54122016       0.00000000
Si       1.39940874       0.48788550       1.86039036       0.00000000
Si       1.40918274      -0.36704628      -1.91341123       0.00000000
Si      -1.20136144       2.07335862      -0.20704372       0.00000000
Si       1.59958026       1.94380425      -2.48970248       0.00000000
Si      -0.16476195       1.41258735       3.38146099       0.00000000
Si      -1.15689136      -3.39119423      -0.95869045       0.00000000
Si      -1.57312204       2.75090859       2.04140692       0.00000000
Si      -1.36758785      -2.28660191       2.77085805       0.00000000
Si      -0.04564458       3.48690708      -1.68679535       0.00000000
