10
Lattice="16.28999089631971 0.0 0.0 0.0 16.28999089631971 0.0 0.0 0.0 34.51877397758722" Properties=species:S:1:pos:R:3:initial_magmoms:R:1 pbc="T T T"
Si      -1.35316143       1.35620766      -1.36042016       0.00000000
Si      -1.35091341      -1.36036161       1.36677162       0.00000000
Si       1.36101321      -1.35956340      -1.36038564       0.00000000
Si       1.36319607       1.36853919       1.35883230       0.00000000
Si       0.05675436      -2.70835911       2.69522738       0.00000000
Si      -2.71137276      -0.00215028      -2.71721585       0.00000000
Si       2.71443528       2.71461447      -0.00307217       0.00000000
Si      -2.71567332       2.71425609      -0.00207113       0.00000000
Si       0.00353493       2.71319724      -2.71804430       0.00000000
Si      -2.71347417      -2.71868697       0.00117364       0.00000000
