10
Lattice="16.28999089631971 0.0 0.0 0.0 16.28999089631971 0.0 0.0 0.0 34.51877397758722" Properties=species:S:1:pos:R:3:initial_magmoms:R:1 pbc="T T T"
Si       0.13846500       0.51644187      -2.28393596       0.00000000
Si      -0.28606869       1.71405009       1.65724726       0.00000000
Si      -2.17732140      -0.90031572      -0.49903819       0.00000000
Si       1.86365745      -1.33465599       0.85313198       0.00000000
Si      -0.51487803      -1.60464645      -3.15895285       0.00000000
Si      -1.52288694      -2.91389004      -1.47077674       0.00000000
Si      -2.94982578      -1.39673718       1.60360506       0.00000000
Si      -1.66267143       1.99892961      -2.69084349       0.00000000
Si      -0.62304363       0.38753910       3.68539896       0.00000000
Si       2.28359736       1.23683454      -2.77714047       0.00000000
