10
Lattice="16.28999089631971 0.0 0.0 0.0 16.28999089631971 0.0 0.0 0.0 34.51877397758722" Properties=species:S:1:pos:R:3:initial_magmoms:R:1 pbc="T T T"
Si       1.34612415       1.35737958       1.34751013       0.00000000
Si      -1.35011520      -1.34754138       1.37032706       0.00000000
Si      -1.35638685       1.35654228      -1.35558753       0.00000000
Si       1.35842310      -1.35614250      -1.35683021       0.00000000
Si       0.11319921      -2.57930973       2.75967397       0.00000000
Si       2.71112841      -2.71296918       0.00303765       0.00000000
Si      -2.71370223      -0.00054546      -2.71189996       0.00000000
Si       0.00022806      -2.71438641      -2.71193447       0.00000000
Si       0.00052128       2.71491488      -2.71183092       0.00000000
Si      -2.71140534       2.71535471       0.00783577       0.00000000
