10
Lattice="16.28999089631971 0.0 0.0 0.0 16.28999089631971 0.0 0.0 0.0 34.51877397758722" Properties=species:S:1:pos:R:3:initial_magmoms:R:1 pbc="T T T"
Si      -1.74615768       0.43460158       1.54385303       0.00000000
Si      -0.06602337       1.29388116      -2.00895925       0.00000000
Si       0.43844535      -2.27493108      -0.91819990       0.00000000
Si       1.15698096      -0.49907673      -2.77589780       0.00000000
Si       1.23346251       2.54551517       1.66601504       0.00000000
Si       1.22657184      -2.87828010       1.31381979       0.00000000
Si      -0.39052017       1.59720748       3.07747956       0.00000000
Si       3.09953088       0.52134746       1.69287066       0.00000000
Si      -3.35718981       1.53846737       0.09582417       0.00000000
Si       2.10926178      -1.33433019       2.93039153       0.00000000
