10
Lattice="16.28999089631971 0.0 0.0 0.0 16.28999089631971 0.0 0.0 0.0 34.51877397758722" Properties=species:S:1:pos:R:3:initial_magmoms:R:1 pbc="T T T"
Si       1.35785295       1.35643572       1.35714088       0.00000000
Si       1.35736425      -1.35733004      -1.35689924       0.00000000
Si      -1.35767376       1.35729909      -1.35689924       0.00000000
Si      -1.35809730      -1.35958295       1.35848711       0.00000000
Si      -0.00035838       2.71347417      -2.71331523       0.00000000
Si       2.71409319       0.00070047      -2.71428175       0.00000000
Si       0.00011403      -2.71460537      -2.71407464       0.00000000
Si       0.00153126      -2.71404126       2.71514472       0.00000000
Si      -2.71503801      -2.71449063      -0.00017259       0.00000000
Si      -2.71500543       2.71520091       0.00065586       0.00000000
