10
Lattice="16.28999089631971 0.0 0.0 0.0 16.28999089631971 0.0 0.0 0.0 34.51877397758722" Properties=species:S:1:pos:R:3:initial_magmoms:R:1 pbc="T T T"
Si      -2.02491216       0.80155874       0.87132338       0.00000000
Si       1.29841074       1.64566581       1.16966931       0.00000000
Si      -0.37866105       0.55320465      -2.30747777       0.00000000
Si       0.36272943      -2.36070398       0.41463974       0.00000000
Si       1.62417816       1.83415740      -2.64728077       0.00000000
Si       1.74770523       3.12268011      -0.60611549       0.00000000
Si      -0.95431707      -1.65371798      -3.09637027       0.00000000
Si      -1.73626965       1.19090114       3.15833151       0.00000000
Si      -2.60638371       2.84879634      -0.29416916       0.00000000
Si      -2.36688813       1.88806101      -2.41465863       0.00000000
