10
Lattice="16.28999089631971 0.0 0.0 0.0 16.28999089631971 0.0 0.0 0.0 34.51877397758722" Properties=species:S:1:pos:R:3:initial_magmoms:R:1 pbc="T T T"
Si      -1.26905616       1.31020470      -1.43748337       0.00000000
Si      -1.37324700      -1.32620148       1.34831787       0.00000000
Si       1.34141634       1.39082391       1.34748942       0.00000000
Si       1.37191122      -1.23740469      -1.49989680       0.00000000
Si       0.49029642       2.33798967      -2.58192841       0.00000000
Si       2.68565085      -2.66453901      -0.01693147       0.00000000
Si       2.28263625       0.68012379      -2.95884882       0.00000000
Si      -0.01751175      -2.68517844       2.70635624       0.00000000
Si       2.69780319       0.03121164       2.70507904       0.00000000
Si      -2.74566321      -2.67028938      -0.02341410       0.00000000
