10
Lattice="16.28999089631971 0.0 0.0 0.0 16.28999089631971 0.0 0.0 0.0 34.51877397758722" Properties=species:S:1:pos:R:3:initial_magmoms:R:1 pbc="T T T"
Si      -2.15666568       0.10060704      -0.87170309       0.00000000
Si      -0.60846408      -0.29379015       2.23809500       0.00000000
Si       0.91644282      -1.94904963      -1.02721025       0.00000000
Si       1.35185823       1.89684018      -0.58070966       0.00000000
Si      -0.82870488       0.41669820      -3.16837648       0.00000000
Si       0.30543750      -2.42926254       2.51158740       0.00000000
Si       0.85817349      -1.26882810      -3.31256148       0.00000000
Si       1.25569836       1.78321743      -2.96233380       0.00000000
Si       3.48255765       1.21899699       0.41301736       0.00000000
Si      -3.12276042       2.01137517       0.23496943       0.00000000
