10
Lattice="16.28999089631971 0.0 0.0 0.0 16.28999089631971 0.0 0.0 0.0 34.51877397758722" Properties=species:S:1:pos:R:3:initial_magmoms:R:1 pbc="T T T"
Si      -2.19265029      -0.35232012       0.69165306       0.00000000
Si       0.60846408       0.29379015      -2.23809500       0.00000000
Si       0.91390158      -2.13547239       0.27349240       0.00000000
Si       0.20487933       2.06075016       1.19628330       0.00000000
Si      -1.54820160       0.39439719      -3.10979809       0.00000000
Si      -1.99761012      -0.43689780       3.01708061       0.00000000
Si       3.17412279      -1.71405009       0.52368461       0.00000000
Si      -0.62143092       1.44130662       3.32471209       0.00000000
Si      -3.30532245       1.72804320       0.18063685       0.00000000
Si       2.39798574       2.42048223       1.86770835       0.00000000
