10
Lattice="16.28999089631971 0.0 0.0 0.0 16.28999089631971 0.0 0.0 0.0 34.51877397758722" Properties=species:S:1:pos:R:3:initial_magmoms:R:1 pbc="T T T"
Si       1.92060729       0.36579195      -1.26511377       0.00000000
Si      -0.63504936       1.73698641       1.47522967       0.00000000
Si      -0.60761700      -2.20947786       0.65043762       0.00000000
Si      -1.69046217       0.86889231      -1.53656956       0.00000000
Si       1.51588224      -0.61134741       2.48286776       0.00000000
Si      -2.21304537       2.67032196      -0.10352186       0.00000000
Si      -1.59905898      -1.76505408       2.77883190       0.00000000
Si      -3.06664137      -1.00931211      -1.84420105       0.00000000
Si      -1.77099993       0.59774526       3.22916407       0.00000000
Si       1.32895449       1.84806792      -2.99357331       0.00000000
