10
Lattice="16.28999089631971 0.0 0.0 0.0 16.28999089631971 0.0 0.0 0.0 34.51877397758722" Properties=species:S:1:pos:R:3:initial_magmoms:R:1 pbc="T T T"
Si       1.29340971       1.40268303       1.38886365       0.00000000
Si      -1.28275605       1.37567421      -1.44823597       0.00000000
Si       1.42845381      -1.32625035      -1.45199852       0.00000000
Si      -1.31287626      -1.43013168       1.50384575       0.00000000
Si      -2.26623222       0.76380552       2.52439387       0.00000000
Si      -0.71149833       2.55362040       2.28897570       0.00000000
Si      -2.58929550      -2.63511927      -0.13079171       0.00000000
Si       0.82758087      -3.41216856       1.35779673       0.00000000
Si       2.68864821       2.71379997      -0.02399056       0.00000000
Si       2.60594388      -2.79438660      -0.06734617       0.00000000
