10
Lattice="16.28999089631971 0.0 0.0 0.0 16.28999089631971 0.0 0.0 0.0 34.51877397758722" Properties=species:S:1:pos:R:3:initial_magmoms:R:1 pbc="T T T"
Si      -1.22300433       1.79295789       0.76693855       0.00000000
Si      -0.01770723      -0.21022245      -2.32791290       0.00000000
Si       2.16020061       0.67479307       0.63911546       0.00000000
Si      -0.71853561      -1.77585435       1.85769790       0.00000000
Si      -1.15698096       0.49907673       2.77589780       0.00000000
Si       2.27271564      -0.93309120      -2.28193387       0.00000000
Si       0.48128805      -3.44758302       0.04515058       0.00000000
Si      -1.86022026      -1.71027081      -2.40830717       0.00000000
Si      -3.21212736       1.44744210      -0.48581750       0.00000000
Si       2.55265929      -2.53270404      -0.52316683       0.00000000
