10
Lattice="16.28999089631971 0.0 0.0 0.0 16.28999089631971 0.0 0.0 0.0 34.51877397758722" Properties=species:S:1:pos:R:3:initial_magmoms:R:1 pbc="T T T"
Si      -1.26416916       0.89798855       1.78358605       0.00000000
Si      -1.04651847       0.55235743      -2.04606695       0.00000000
Si      -0.11518659      -2.22656607      -0.86956292       0.00000000
Si      -0.79649955       2.70338156      -1.04001672       0.00000000
Si       2.20783257      -2.36796327      -0.95499693       0.00000000
Si       0.45914994       1.77443453       3.17173658       0.00000000
Si       0.54351585       0.38944503      -3.79299404       0.00000000
Si      -2.25443826      -0.95768910       3.02110692       0.00000000
Si       2.56363875      -0.70491717      -3.02512349       0.00000000
Si       2.45087937      -2.76710085       1.63204855       0.00000000
