10
Lattice="16.28999089631971 0.0 0.0 0.0 16.28999089631971 0.0 0.0 0.0 34.51877397758722" Properties=species:S:1:pos:R:3:initial_magmoms:R:1 pbc="T T T"
Si      -0.61440993       2.25030223       0.21857300       0.00000000
Si       2.24920886      -0.77059845       0.15167558       0.00000000
Si      -1.07776269      -0.43616801       2.10084828       0.00000000
Si      -1.22484510      -1.09747033      -1.92963506       0.00000000
Si      -1.01789694      -3.04243999      -0.40559582       0.00000000
Si      -2.87463114       1.82887993      -0.03161921       0.00000000
Si      -0.89041140      -2.78575846       1.94903462       0.00000000
Si       0.52831728       3.17604664      -1.53974529       0.00000000
Si       0.36678564      -0.33594378      -3.64335507       0.00000000
Si      -2.99815821       0.54035722      -2.07278450       0.00000000
