10
Lattice="16.28999089631971 0.0 0.0 0.0 16.28999089631971 0.0 0.0 0.0 34.51877397758722" Properties=species:S:1:pos:R:3:initial_magmoms:R:1 pbc="T T T"
Si       1.14272721       0.92574441      -1.75831829       0.00000000
Si      -2.26022121      -0.42142230      -0.25019221       0.00000000
Si       0.73977777       0.72148410       2.10229807       0.00000000
Si       0.61440993      -2.25030223      -0.21857300       0.00000000
Si      -0.46335276      -2.68647024       1.88227528       0.00000000
Si       3.30678922       0.68211117      -0.81516130       0.00000000
Si       2.93502861       1.35966114       1.43328933       0.00000000
Si      -2.70951570      -1.89843660       1.52559259       0.00000000
Si      -3.17412279       1.71405009      -0.52368461       0.00000000
Si      -2.38374828      -1.70994501      -2.29135750       0.00000000
