10
Lattice="16.28999089631971 0.0 0.0 0.0 16.28999089631971 0.0 0.0 0.0 34.51877397758722" Properties=species:S:1:pos:R:3:initial_magmoms:R:1 pbc="T T T"
Si       2.31218209      -0.55105812       0.09175095       0.00000000
Si       0.10739997       1.96242372      -1.35558753       0.00000000
Si      -1.09573056      -1.44553062      -1.57561032       0.00000000
Si      -1.45420830      -0.11394855       1.91921039       0.00000000
Si      -0.63237780       1.24093962      -3.45788560       0.00000000
Si       2.50818500      -2.43690974      -1.29514512       0.00000000
Si      -0.01796787      -1.00936261      -3.67645860       0.00000000
Si      -1.95651045      -2.44349090       2.23792241       0.00000000
Si      -3.34508634       1.31792616       1.53014907       0.00000000
Si      -3.34189350      -0.65749698      -1.93229301       0.00000000
