10
Lattice="16.28999089631971 0.0 0.0 0.0 16.28999089631971 0.0 0.0 0.0 34.51877397758722" Properties=species:S:1:pos:R:3:initial_magmoms:R:1 pbc="T T T"
Si       1.56184610       1.02418488      -1.48171920       0.00000000
Si      -1.10450828      -1.61328015      -1.40888455       0.00000000
Si       1.33626218      -1.60559127       1.52096707       0.00000000
Si      -1.80066143       1.91717010      -0.09240681       0.00000000
Si      -1.67987108       0.43166871       2.98446035       0.00000000
Si      -2.31664718      -0.20123037      -2.86685482       0.00000000
Si       0.39828236       2.53058634      -2.84959542       0.00000000
Si      -2.98176788      -2.46985722      -0.12309402       0.00000000
Si       2.85062945       2.68877853      -0.35260947       0.00000000
Si       2.86465514      -2.71101438       0.05378028       0.00000000
