10
Lattice="16.28999089631971 0.0 0.0 0.0 16.28999089631971 0.0 0.0 0.0 34.51877397758722" Properties=species:S:1:pos:R:3:initial_magmoms:R:1 pbc="T T T"
Si      -1.27793421       1.78523739       0.89269051       0.00000000
Si      -0.78182226       0.04385268      -2.23947575       0.00000000
Si      -0.46024137      -1.88011035       1.39145256       0.00000000
Si       2.38164687       0.07273485       0.13558982       0.00000000
Si       2.55381588      -1.43198874      -1.73025451       0.00000000
Si       2.49412932      -0.07666074       2.59360405       0.00000000
Si      -2.49425964      -1.08776475       2.39929776       0.00000000
Si       0.80133768      -1.38043089      -3.26917135       0.00000000
Si      -3.04324893      -0.61141257      -2.00202097       0.00000000
Si      -3.34930545       0.87035841       1.46100793       0.00000000
