10
Lattice="16.28999089631971 0.0 0.0 0.0 16.28999089631971 0.0 0.0 0.0 34.51877397758722" Properties=species:S:1:pos:R:3:initial_magmoms:R:1 pbc="T T T"
Si      -1.36945143      -1.33524243       1.36625384       0.00000000
Si       1.35612621      -1.35685926      -1.35879778       0.00000000
Si      -1.35957969       1.35764118      -1.36017853       0.00000000
Si       1.35754344       1.35071793       1.39597452       0.00000000
Si       2.71397679      -2.71249677       0.00186401       0.00000000
Si      -2.71277370      -2.71482624       0.00113912       0.00000000
Si       2.71457235       0.00035838      -2.71614577       0.00000000
Si       2.71699281       2.71389724       0.00314121       0.00000000
Si      -0.00043983      -2.71453302      -2.71642192       0.00000000
Si      -2.71448415       2.71657952      -0.00151883       0.00000000
