10
Lattice="16.28999089631971 0.0 0.0 0.0 16.28999089631971 0.0 0.0 0.0 34.51877397758722" Properties=species:S:1:pos:R:3:initial_magmoms:R:1 pbc="T T T"
Si      -1.86059493      -1.15725789       0.81737051       0.00000000
Si       2.10597120      -0.57860451       0.84988721       0.00000000
Si      -0.18735129       2.34959045       0.15181365       0.00000000
Si      -0.12748554      -0.25668153      -2.35463045       0.00000000
Si       0.89041140       2.78575846      -1.94903462       0.00000000
Si      -3.36919554      -0.86874570      -0.95989860       0.00000000
Si      -1.90645128      -1.78553061      -2.62032160       0.00000000
Si       3.41656427       1.35821133       0.43227885       0.00000000
Si      -2.52565047      -0.09334170       2.79122414       0.00000000
Si       2.04854895      -1.19482263       3.14255642       0.00000000
