10
Lattice="16.28999089631971 0.0 0.0 0.0 16.28999089631971 0.0 0.0 0.0 34.51877397758722" Properties=species:S:1:pos:R:3:initial_magmoms:R:1 pbc="T T T"
Si       1.40836010      -1.33832124       1.34005407       0.00000000
Si      -0.27371502       2.35037007       0.09658358       0.00000000
Si       0.37176061      -0.67754997      -2.24845064       0.00000000
Si      -2.19525084      -0.63817704       0.66900873       0.00000000
Si      -2.93502861      -1.35966114      -1.43328933       0.00000000
Si      -1.79230140      -0.43391673      -3.19160763       0.00000000
Si      -1.32044526       2.66468562       2.19905424       0.00000000
Si       2.97253078      -2.26302309      -0.18101655       0.00000000
Si      -3.11951286       1.29259521       1.63919394       0.00000000
Si       1.57312204      -2.75090859      -2.04140692       0.00000000
