10
Lattice="16.28999089631971 0.0 0.0 0.0 16.28999089631971 0.0 0.0 0.0 34.51877397758722" Properties=species:S:1:pos:R:3:initial_magmoms:R:1 pbc="T T T"
Si      -1.15420026      -0.92178594      -1.86052844       0.00000000
Si       2.30700609      -0.56237967      -0.16879690       0.00000000
Si      -0.74833002      -1.36775727       1.80571259       0.00000000
Si      -0.22864644       2.38267314       0.38768057       0.00000000
Si       2.86721919      -0.35018613       2.09518720       0.00000000
Si       1.29412647      -1.99436841       2.79305364       0.00000000
Si      -2.02030372      -0.03551220       3.22698939       0.00000000
Si       0.73731798       2.81364138       2.47876003       0.00000000
Si       3.27582126       0.62416764      -1.90195099       0.00000000
Si       0.40997043      -1.84648779      -3.38159906       0.00000000
