10
Lattice="16.28999089631971 0.0 0.0 0.0 16.28999089631971 0.0 0.0 0.0 34.51877397758722" Properties=species:S:1:pos:R:3:initial_magmoms:R:1 pbc="T T T"
Si       1.80472186       0.84173688      -1.37167329       0.00000000
Si      -1.98590317       1.36316349      -0.27766917       0.00000000
Si      -0.93397803      -1.92481011      -1.28661898       0.00000000
Si       0.17044879       1.47320244       2.21762535       0.00000000
Si      -0.25097840      -1.68612903       3.08919037       0.00000000
Si       0.35574265       2.09561076      -2.86913306       0.00000000
Si      -0.62805118       3.41314596       1.09900934       0.00000000
Si      -1.08179188       3.23768637      -1.39908121       0.00000000
Si       3.43292365      -0.48420396       1.32338150       0.00000000
Si      -2.39150788      -0.62709984      -2.84828371       0.00000000
