10
Lattice="16.28999089631971 0.0 0.0 0.0 16.28999089631971 0.0 0.0 0.0 34.51877397758722" Properties=species:S:1:pos:R:3:initial_magmoms:R:1 pbc="T T T"
Si       1.80113643      -1.48248774       0.40690754       0.00000000
Si      -0.15283278       1.87444143       1.44813242       0.00000000
Si       0.13864419       0.59282568      -2.32456458       0.00000000
Si      -1.79515963      -1.49050242       0.59075463       0.00000000
Si      -0.51464997      -2.89924533       2.19180530       0.00000000
Si       1.66267143      -1.99892961       2.69084349       0.00000000
Si       2.08674900       2.81157255       1.40208434       0.00000000
Si       1.14779340      -3.60357606      -0.46810936       0.00000000
Si      -2.98107719      -1.80115272      -1.58430905       0.00000000
Si      -2.34938452       2.88578979       0.92175534       0.00000000
