10
Lattice="16.28999089631971 0.0 0.0 0.0 16.28999089631971 0.0 0.0 0.0 34.51877397758722" Properties=species:S:1:pos:R:3:initial_magmoms:R:1 pbc="T T T"
Si       2.32143903      -0.15265359      -0.15229692       0.00000000
Si      -0.81020663       1.97830647       0.94453774       0.00000000
Si      -0.71929228      -1.93318317       1.19548937       0.00000000
Si       0.42142719       3.15933147      -0.87156501       0.00000000
Si       0.25097840       1.68612903      -3.08919037       0.00000000
Si       0.37571093       2.28895677       3.11960142       0.00000000
Si       3.31866396       0.17588313       2.06073744       0.00000000
Si       0.93273282      -2.74664061       2.72249723       0.00000000
Si      -1.49982749      -3.72329127      -0.12157519       0.00000000
Si      -2.61287432      -1.61546301       2.66864791       0.00000000
