10
Lattice="10.86 0.0 0.0 0.0 10.86 0.0 0.0 0.0 10.86" Properties=species:S:1:pos:R:3:initial_magmoms:R:1 pbc="T T T"
Si       1.18660704       1.16827536       1.32326928       0.00000000
Si       1.18660704      -1.54672464      -1.39173072       0.00000000
Si      -1.62708864       1.32993732      -1.19513214       0.00000000
Si      -1.52839296      -1.54672464       1.32326928       0.00000000
Si       2.54410704       2.52577536      -0.03423072       0.00000000
Si      -0.35589306       2.45337174       2.70104490       0.00000000
Si       2.54410704      -0.18922464       2.68076928       0.00000000
Si       2.54410704      -0.18922464      -2.74923072       0.00000000
Si      -2.85784158      -0.23663940      -2.57105070       0.00000000
Si       2.54410704      -2.90422464      -0.03423072       0.00000000
