10
Lattice="10.86 0.0 0.0 0.0 10.86 0.0 0.0 0.0 10.86" Properties=species:S:1:pos:R:3:initial_magmoms:R:1 pbc="T T T"
Si      -1.27244448       1.23558564      -1.25927130       0.00000000
Si       1.44255552      -1.47941436      -1.25927130       0.00000000
Si      -1.27244448      -1.47941436       1.45572870       0.00000000
Si       1.44701898       0.96493272       1.71084096       0.00000000
Si       0.08505552       2.59308564      -2.61677130       0.00000000
Si      -2.62994448       2.59308564       0.09822870       0.00000000
Si       2.63221422       2.59336800       0.27104388       0.00000000
Si      -2.62994448      -0.12191436      -2.61677130       0.00000000
Si       2.80005552      -0.12191436      -2.61677130       0.00000000
Si      -2.62994448      -0.12191436       2.81322870       0.00000000
