10
Lattice="10.86 0.0 0.0 0.0 10.86 0.0 0.0 0.0 10.86" Properties=species:S:1:pos:R:3:initial_magmoms:R:1 pbc="T T T"
Si       1.26957744       1.41929340       1.15492842       0.00000000
Si      -1.44542256      -1.29570660       1.15492842       0.00000000
Si      -1.44542256       1.41929340      -1.56007158       0.00000000
Si       2.62707744       0.06179340       2.51242842       0.00000000
Si      -0.08792256      -2.65320660       2.51242842       0.00000000
Si       2.45937732      -2.75257560      -0.38172900       0.00000000
Si      -0.08792256       2.77679340       2.51242842       0.00000000
Si      -2.80292256       0.06179340       2.51242842       0.00000000
Si       0.48122832      -3.06177066      -2.25182100       0.00000000
Si      -2.80292256      -2.65320660      -0.20257158       0.00000000
