10
Lattice="16.290000149 0.0 0.0 0.0 16.290000149 0.0 0.0 0.0 29.1751946751" Properties=species:S:1:pos:R:3:initial_magmoms:R:1 pbc="T T T"
Si       1.37160172       1.34879572       1.33558206       0.00000000
Si       1.44067132      -1.33183295      -1.28216228       0.00000000
Si      -1.35001747      -1.38781353       1.33450258       0.00000000
Si      -1.37179720       1.33850044      -1.36545746       0.00000000
Si       0.12220758      -2.68599231      -2.60589630       0.00000000
Si       0.03422529       2.74727595      -2.62628976       0.00000000
Si       0.00614133       2.69524568       2.68586842       0.00000000
Si      -2.77778712      -0.09891288      -2.60753011       0.00000000
Si      -2.71153568      -0.02404404       2.67839957       0.00000000
Si       2.69762402      -0.03401352       2.69540871       0.00000000
