10
Lattice="16.290000149 0.0 0.0 0.0 16.290000149 0.0 0.0 0.0 29.1751946751" Properties=species:S:1:pos:R:3:initial_magmoms:R:1 pbc="T T T"
Si       1.12982554      -0.06149475      -1.00534803       0.00000000
H        0.66655423       0.93022417       1.62085712       0.00000000
H       -0.92409913       1.77345974       0.43914503       0.00000000
Si      -2.28011132       1.19539279       0.16656119       0.00000000
Si      -2.72953614      -1.01400364       0.77623523       0.00000000
Si       0.13291011       0.67227202       3.00667886       0.00000000
Si       1.35373159      -2.19625040      -1.91771472       0.00000000
Si       3.19116216       0.63364843      -0.10269669       0.00000000
Si       0.90297100       1.44963082      -2.84463983       0.00000000
Si      -1.66389320      -0.92382220       2.88233418       0.00000000
