10
Lattice="16.290000149 0.0 0.0 0.0 16.290000149 0.0 0.0 0.0 29.1751946751" Properties=species:S:1:pos:R:3:initial_magmoms:R:1 pbc="T T T"
Si      -1.34400646       1.35694072      -1.36863756       0.00000000
Si       1.32832408      -1.34930071      -1.39451596       0.00000000
Si       1.34833634       1.37893222       1.35057811       0.00000000
Si      -1.34415307      -1.37143882       1.36294839       0.00000000
Si       2.66804138      -2.70892928      -0.03340560       0.00000000
Si      -2.68815953       2.72306900      -0.01878883       0.00000000
Si      -2.70989039      -2.71218728      -0.00811070       0.00000000
Si      -2.72745102      -0.02712285       2.69832623       0.00000000
Si       2.71945262       0.03616380       2.70629106       0.00000000
Si       0.00386706       2.71205696      -2.72461308       0.00000000
