10
Lattice="16.290000149 0.0 0.0 0.0 16.290000149 0.0 0.0 0.0 29.1751946751" Properties=species:S:1:pos:R:3:initial_magmoms:R:1 pbc="T T T"
Si      -1.33312474       1.36534148      -1.37184683       0.00000000
Si       1.37109510       1.37229568       1.32928022       0.00000000
Si       1.36991571      -1.33977106      -1.37981166       0.00000000
Si      -1.37930689      -1.32698341       1.38859339       0.00000000
Si      -2.63779085      -2.69529455      -0.06631522       0.00000000
Si       0.06003518      -2.67597461       2.67527783       0.00000000
Si      -0.02472822       2.70881525       2.67872050       0.00000000
Si      -2.70334181       2.70550838      -0.00633102       0.00000000
Si      -2.66620061       0.01050705      -2.75425508       0.00000000
Si       2.77708665       0.03446964       2.66220734       0.00000000
