10
Lattice="16.290000149 0.0 0.0 0.0 16.290000149 0.0 0.0 0.0 29.1751946751" Properties=species:S:1:pos:R:3:initial_magmoms:R:1 pbc="T T T"
Si       0.34503849      -0.88285285      -2.13506992       0.00000000
Si      -1.82278586       1.45676584       0.16288511       0.00000000
Si       1.62184870       1.68726935       0.07004964       0.00000000
Si       0.22685454      -1.51112557       1.83929180       0.00000000
H       -0.90297100      -1.44963082       2.84463983       0.00000000
Si       1.06043014       2.72326448       2.07841169       0.00000000
Si       2.28819116      -0.81598240       2.74194315       0.00000000
Si       1.40120065       0.88005097      -3.31573170       0.00000000
Si      -3.65316285       0.16426836       0.79957539       0.00000000
H       -1.82707013       0.32382891       3.28378486       0.00000000
