10
Lattice="16.290000149 0.0 0.0 0.0 16.290000149 0.0 0.0 0.0 29.1751946751" Properties=species:S:1:pos:R:3:initial_magmoms:R:1 pbc="T T T"
Si       1.38329794      -1.34431597      -1.33537784       0.00000000
Si      -1.29757996       1.30240180      -1.46088952       0.00000000
Si       1.38790801       1.35931906       1.32992207       0.00000000
Si      -1.34926813      -1.39110085       1.34520988       0.00000000
Si      -2.77808034       0.05361039       2.46626673       0.00000000
Si      -2.65883753       2.67317273      -0.19906235       0.00000000
Si       2.71081892      -0.01466100       2.66410373       0.00000000
Si       0.01756062      -2.68506443      -2.70643693       0.00000000
Si      -2.70901073      -2.69925302      -0.04425877       0.00000000
Si       2.72745102       0.02712285      -2.69832623       0.00000000
