10
Lattice="16.290000149 0.0 0.0 0.0 16.290000149 0.0 0.0 0.0 29.1751946751" Properties=species:S:1:pos:R:3:initial_magmoms:R:1 pbc="T T T"
Si      -1.37111628       1.34276842      -1.35571295       0.00000000
Si      -1.33154135      -1.39667203       1.34278833       0.00000000
Si       1.29916009      -1.35839053      -1.41686415       0.00000000
Si       1.35630541       1.38191329       1.35022801       0.00000000
Si       2.77682601       0.01062108       2.60353602       0.00000000
Si      -2.73608472      -0.07794765       2.65613890       0.00000000
Si       2.60998382      -2.78488956      -0.11999758       0.00000000
Si      -0.01083285       2.69307911      -2.70880012       0.00000000
Si      -2.70978612       2.70622514       0.01651316       0.00000000
Si       0.03943809      -2.63495639       2.78696047       0.00000000
