10
Lattice="16.290000149 0.0 0.0 0.0 16.290000149 0.0 0.0 0.0 29.1751946751" Properties=species:S:1:pos:R:3:initial_magmoms:R:1 pbc="T T T"
Si       1.37707516       1.31949001      -1.36367777       0.00000000
Si      -1.37222074      -1.32605488      -1.36577839       0.00000000
Si       1.35679411      -1.36951660       1.33884968       0.00000000
Si      -1.36870210       1.38059380       1.32169467       0.00000000
Si      -0.05997978       2.63914292      -2.64484810       0.00000000
Si       0.04368978      -2.66046653      -2.66853836       0.00000000
Si       2.72554509      -0.00878031       2.66941361       0.00000000
Si      -2.72893340       0.01881495       2.66602929       0.00000000
Si      -0.01617597       2.73339686       2.68513904       0.00000000
Si       0.00026064      -2.72435591       2.69625479       0.00000000
