10
Lattice="16.290000149 0.0 0.0 0.0 16.290000149 0.0 0.0 0.0 29.1751946751" Properties=species:S:1:pos:R:3:initial_magmoms:R:1 pbc="T T T"
Si       1.34312680       1.37904625      -1.31282541       0.00000000
Si      -1.36474363       1.37037997       1.34246741       0.00000000
Si       1.54531828      -1.32318784       1.18690527       0.00000000
Si      -1.40989951      -1.32489829      -1.35556707       0.00000000
Si       2.62690913      -2.74390392      -0.31144520       0.00000000
Si       2.64653858       0.03223791      -2.74416046       0.00000000
Si       2.57380373       2.81171267       0.11389996       0.00000000
Si      -0.05851368       2.71964159      -2.67279793       0.00000000
Si      -2.71104698       0.07842006       2.71174682       0.00000000
Si      -2.78622534      -2.64583811       0.00676865       0.00000000
