10
Lattice="16.290000149 0.0 0.0 0.0 16.290000149 0.0 0.0 0.0 29.1751946751" Properties=species:S:1:pos:R:3:initial_magmoms:R:1 pbc="T T T"
Si       0.85736551      -0.93541090      -1.94700662       0.00000000
Si      -2.28817487       0.35456814      -0.21560469       0.00000000
Si       1.28017735       1.92423998       0.56567785       0.00000000
H       -1.39821958      -1.69121478       1.20333090       0.00000000
Si       0.04181643      -2.02459078       1.65189952       0.00000000
Si       2.83967283       0.65122534       1.77720873       0.00000000
Si       1.43372038      -0.73448353       3.09791553       0.00000000
Si       2.64073934      -2.14037570      -0.97264264       0.00000000
Si      -1.04234824      -1.84358167      -3.00539515       0.00000000
H       -2.06992145      -0.71650914      -2.96723400       0.00000000
