10
Lattice="16.290000149 0.0 0.0 0.0 16.290000149 0.0 0.0 0.0 29.1751946751" Properties=species:S:1:pos:R:3:initial_magmoms:R:1 pbc="T T T"
Si      -1.37160172      -1.34879572      -1.33558206       0.00000000
Si      -1.36546039       1.34644996       1.35028636       0.00000000
Si       1.32602230      -1.38280924       1.35982665       0.00000000
Si       1.38348235       1.33346683      -1.36828746       0.00000000
Si       0.06906960      -2.68062867      -2.61774434       0.00000000
Si       2.69699686      -0.01363473       2.68370946       0.00000000
Si      -0.00697212       2.70790301       2.68592677       0.00000000
Si      -2.69596244       2.71031393      -0.02704541       0.00000000
Si       0.05383845       2.74033641      -2.68152132       0.00000000
Si      -2.72160290      -0.03029940       2.70579508       0.00000000
