10
Lattice="16.290000149 0.0 0.0 0.0 16.290000149 0.0 0.0 0.0 29.1751946751" Properties=species:S:1:pos:R:3:initial_magmoms:R:1 pbc="T T T"
Si       1.25354809      -1.37134108       1.40969289       0.00000000
Si      -1.29388213       1.44971227       1.32667196       0.00000000
Si       1.90654904       0.79500088      -1.12656513       0.00000000
Si      -1.84560815      -0.87816133      -1.17963773       0.00000000
H        0.75733840      -1.82425196      -1.92211726       0.00000000
Si       1.24699951       1.23540103      -3.25215603       0.00000000
Si       2.65953800       0.06607224       2.65176554       0.00000000
Si      -2.72728811       0.06416631       2.60998666       0.00000000
Si       2.76187179      -2.60331307       0.12875013       0.00000000
Si      -3.48280203       0.85540420      -1.26495679       0.00000000
