10
Lattice="16.290000149 0.0 0.0 0.0 16.290000149 0.0 0.0 0.0 29.1751946751" Properties=species:S:1:pos:R:3:initial_magmoms:R:1 pbc="T T T"
Si      -1.31224096       0.45910107      -0.60628972       0.00000000
H        0.57080161      -0.11992698      -2.33378217       0.00000000
Si       1.75664846      -0.63201943      -1.53490699       0.00000000
Si       1.06543117      -2.49543254      -0.11696336       0.00000000
Si      -2.57070863       0.70685569       1.33234362       0.00000000
Si       0.43510590      -2.16204140       2.21273429       0.00000000
Si      -2.28371141      -1.53741763      -1.48460896       0.00000000
Si      -1.34293132      -0.61273207       2.84741147       0.00000000
Si      -1.04107762       2.48850929      -1.80299786       0.00000000
Si       3.05264829       1.04345596      -0.35695851       0.00000000
