10
Lattice="16.290000149 0.0 0.0 0.0 16.290000149 0.0 0.0 0.0 29.1751946751" Properties=species:S:1:pos:R:3:initial_magmoms:R:1 pbc="T T T"
Si       1.27161435      -1.36133902      -1.42269919       0.00000000
Si       1.35828367       1.41240817       1.31110407       0.00000000
Si      -1.39203525       1.35571897      -1.34964451       0.00000000
Si      -1.29537039      -1.35777151       1.44592265       0.00000000
Si       2.62014292      -2.69645114      -0.04740969       0.00000000
Si      -0.07746482       2.65717595       2.67947905       0.00000000
Si      -2.72273278      -2.62977617       0.04233321       0.00000000
Si       2.61380611       0.00689067      -2.78561841       0.00000000
Si      -0.03629998       2.70207119      -2.74348943       0.00000000
Si      -0.10789454      -2.72407898      -2.75515951       0.00000000
