10
Lattice="16.290000149 0.0 0.0 0.0 16.290000149 0.0 0.0 0.0 29.1751946751" Properties=species:S:1:pos:R:3:initial_magmoms:R:1 pbc="T T T"
H        1.26438094       0.03806973       0.84362993       0.00000000
Si      -1.35828628      -1.37022359       1.34092112       0.00000000
Si       0.58601647      -1.54564246      -1.73122688       0.00000000
Si      -0.82370549       2.25903206       0.24781410       0.00000000
Si       0.49568841       1.97814359      -1.66030198       0.00000000
Si       2.70808220       1.90242767      -0.84899817       0.00000000
Si       0.42508755      -2.57518838       2.31528510       0.00000000
Si       3.56773809      -0.17723520      -0.05324473       0.00000000
H       -3.10018251       0.99308728      -1.48002845       0.00000000
Si       2.64665261      -2.26222979      -0.86577390       0.00000000
