10
Lattice="16.290000149 0.0 0.0 0.0 16.290000149 0.0 0.0 0.0 29.1751946751" Properties=species:S:1:pos:R:3:initial_magmoms:R:1 pbc="T T T"
Si      -0.73682929       1.32633181      -1.79018995       0.00000000
Si       1.99484084      -0.88217844      -0.98011149       0.00000000
Si      -1.52140456      -1.84414368      -0.07743097       0.00000000
Si      -0.62757226       1.07727400       2.04188435       0.00000000
H        2.45242694       1.40768407       1.00616494       0.00000000
H        1.26703621      -0.73672503       2.80688713       0.00000000
Si      -2.49574205       2.29837241      -0.53212638       0.00000000
Si       0.80369974      -2.03159678      -2.67087237       0.00000000
Si      -0.63133525      -0.40462731      -3.59727233       0.00000000
Si       2.56396457      -2.60499908       0.55820900       0.00000000
