10
Lattice="16.290000149 0.0 0.0 0.0 16.290000149 0.0 0.0 0.0 29.1751946751" Properties=species:S:1:pos:R:3:initial_magmoms:R:1 pbc="T T T"
Si      -1.36617715      -1.34867355       1.34626018       0.00000000
Si      -1.36150192       1.36329382      -1.33949154       0.00000000
Si       1.36153450       1.34254036       1.36297757       0.00000000
Si       1.36151821      -1.36376949      -1.34389699       0.00000000
Si       0.01097946      -2.69309540       2.68373863       0.00000000
Si       2.71153568       0.02404404      -2.67839957       0.00000000
Si       0.00987174       2.72013680      -2.67772854       0.00000000
Si       0.00263898       2.69568551       2.71536454       0.00000000
Si      -2.74387134       0.01296684      -2.66848001       0.00000000
Si       0.01181025      -2.75198376      -2.68015008       0.00000000
