10
Lattice="16.290000149 0.0 0.0 0.0 16.290000149 0.0 0.0 0.0 29.1751946751" Properties=species:S:1:pos:R:3:initial_magmoms:R:1 pbc="T T T"
Si      -1.19114110      -1.14941834      -1.69076088       0.00000000
Si       0.56912374      -1.72282064       1.53832049       0.00000000
Si      -1.99484084       0.88217844       0.98011149       0.00000000
Si       1.43802061       1.42170325      -1.34821492       0.00000000
H        0.45758610       2.28986251       1.98627643       0.00000000
Si      -2.73167012       2.20851025      -0.81007846       0.00000000
Si      -2.48160233      -2.58653274      -0.40880283       0.00000000
Si      -2.62617608       0.47755113      -2.61716084       0.00000000
Si      -3.51624540      -0.96196523       0.90268052       0.00000000
H       -0.72780463       0.14545341       3.78699862       0.00000000
