10
Lattice="16.290000149 0.0 0.0 0.0 16.290000149 0.0 0.0 0.0 29.1751946751" Properties=species:S:1:pos:R:3:initial_magmoms:R:1 pbc="T T T"
Si       1.44081793      -0.29012490      -0.44250018       0.00000000
Si      -1.98594650       0.08379576       1.06081008       0.00000000
Si      -1.22662072       1.95584258      -0.22152725       0.00000000
Si       0.65065519       2.66765042       1.05021948       0.00000000
Si       1.08036910      -0.05789466      -2.80256920       0.00000000
Si      -0.59629546       1.62245143      -2.55122490       0.00000000
Si      -0.95941585      -1.25503048       2.67449010       0.00000000
Si       1.88939567      -2.42787791       0.43751122       0.00000000
Si       2.65882124       1.30331404       0.96779956       0.00000000
H        1.62204418       2.40762944      -1.43066402       0.00000000
