10
Lattice="16.290000149 0.0 0.0 0.0 16.290000149 0.0 0.0 0.0 29.1751946751" Properties=species:S:1:pos:R:3:initial_magmoms:R:1 pbc="T T T"
Si       1.39766572       1.25587756       1.38933269       0.00000000
Si      -1.55949547       1.27301464      -1.21153088       0.00000000
Si       1.25533999      -1.34806593      -1.48093463       0.00000000
Si      -1.40595245      -1.38570886       1.32070680       0.00000000
Si      -2.83967283      -0.65122534      -1.77720873       0.00000000
Si      -0.01651806       2.64609875       2.67304126       0.00000000
Si       2.61265538      -2.73343042      -0.08064199       0.00000000
Si       2.59657715      -0.13916547       2.83199355       0.00000000
Si      -2.79785640      -2.67581611      -0.12530921       0.00000000
Si       3.27570726       2.05838813       0.19315642       0.00000000
