10
Lattice="16.290000149 0.0 0.0 0.0 16.290000149 0.0 0.0 0.0 29.1751946751" Properties=species:S:1:pos:R:3:initial_magmoms:R:1 pbc="T T T"
Si       1.42055317       1.31046535       1.31305881       0.00000000
Si       1.37801998      -1.34897491      -1.32000251       0.00000000
Si      -1.34876314      -1.35767377       1.35253285       0.00000000
Si      -1.36370107       1.39320226      -1.30427708       0.00000000
Si       0.05929560       2.68123628       2.57488598       0.00000000
Si       0.00926901      -2.70971120      -2.65056644       0.00000000
Si       2.72961758       0.04206078      -2.64572335       0.00000000
Si       0.00835677       2.73686664      -2.64621933       0.00000000
Si      -2.71622720       0.04039920      -2.66772145       0.00000000
Si       2.73569375      -2.67700088       0.06751140       0.00000000
