10
Lattice="16.290000149 0.0 0.0 0.0 16.290000149 0.0 0.0 0.0 29.1751946751" Properties=species:S:1:pos:R:3:initial_magmoms:R:1 pbc="T T T"
Si       1.35210259       1.35524656      -1.33610722       0.00000000
Si       1.39518964      -1.45010323       1.19367391       0.00000000
Si      -1.37753128      -1.36565587      -1.33564041       0.00000000
Si      -1.30341178       1.34680834       1.43133505       0.00000000
Si      -0.01962945      -2.77614183       2.43271526       0.00000000
Si       2.66004299       2.66861153       0.11080739       0.00000000
Si      -0.02505402       2.69966842      -2.67358566       0.00000000
Si       2.70467759      -0.03153744      -2.67148505       0.00000000
Si      -2.64653858      -0.03223791       2.74416046       0.00000000
Si      -2.70505226       2.68740368       0.07136253       0.00000000
