10
Lattice="16.290000149 0.0 0.0 0.0 16.290000149 0.0 0.0 0.0 29.1751946751" Properties=species:S:1:pos:R:3:initial_magmoms:R:1 pbc="T T T"
Si       0.16542495      -1.38459463      -0.62469927       0.00000000
Si      -0.75733840       1.82425196       1.92211726       0.00000000
Si      -0.57845791       1.29463147      -2.38396351       0.00000000
Si      -2.60294654       0.94609063       0.74247953       0.00000000
Si      -2.51258591       0.25676298      -1.48554256       0.00000000
Si       1.14921064       2.61925283       0.79555213       0.00000000
Si       2.00453339      -0.77906111       2.05086739       0.00000000
Si       0.95464288      -2.63375093       1.10710236       0.00000000
Si       2.86001904       0.95211793       0.64745884       0.00000000
Si       2.06275385      -1.35962369      -1.97148460       0.00000000
