10
Lattice="16.290000149 0.0 0.0 0.0 16.290000149 0.0 0.0 0.0 29.1751946751" Properties=species:S:1:pos:R:3:initial_magmoms:R:1 pbc="T T T"
Si       1.35090202       1.36153450       1.35340811       0.00000000
Si      -1.34161183      -1.35392707       1.37677744       0.00000000
Si       1.38610634      -1.35363385      -1.33266454       0.00000000
Si      -1.35070165       1.37394748      -1.34929440       0.00000000
Si       2.69061932       0.00190593       2.71451846       0.00000000
Si       0.04884263      -2.72836325      -2.67743679       0.00000000
Si      -2.69338862       2.71770959       0.02657860       0.00000000
Si      -2.70010010      -2.71538012       0.04113702       0.00000000
Si      -2.70601337       0.03539817      -2.71711506       0.00000000
Si       2.70962975       2.71393031      -0.00930689       0.00000000
