10
Lattice="16.290000149 0.0 0.0 0.0 16.290000149 0.0 0.0 0.0 29.1751946751" Properties=species:S:1:pos:R:3:initial_magmoms:R:1 pbc="T T T"
Si       1.35107632      -1.34214940       1.36335685       0.00000000
Si      -1.35035956       1.33413472       1.39372822       0.00000000
Si      -1.41747436      -1.45523458      -1.23420993       0.00000000
Si       1.47157345       1.42417020      -1.21041756       0.00000000
Si      -0.96998806       0.92458783      -3.43675916       0.00000000
Si       0.07990245       2.77927765      -2.49299413       0.00000000
Si      -2.81246853      -0.08591346      -2.49592332       0.00000000
Si       2.68617215      -2.68490153      -0.02935025       0.00000000
Si      -0.08037486      -2.61708626      -2.78608522       0.00000000
Si      -0.00452862      -2.71318097       2.70480312       0.00000000
