10
Lattice="16.290000149 0.0 0.0 0.0 16.290000149 0.0 0.0 0.0 29.1751946751" Properties=species:S:1:pos:R:3:initial_magmoms:R:1 pbc="T T T"
Si      -0.64540981       0.84087352      -1.07951138       0.00000000
Si       2.14681025       0.25102890       1.31478015       0.00000000
Si       2.25230429      -1.47993022      -0.49230223       0.00000000
Si       0.38789748       1.22306950       2.57284372       0.00000000
Si      -2.07690986       2.06788520       0.20562677       0.00000000
Si       0.41868558      -2.66623157      -1.50021769       0.00000000
Si      -2.08528292      -0.48852081      -2.29066123       0.00000000
Si      -0.69405175      -2.30962229       2.13687878       0.00000000
Si      -1.37863900      -0.25997211       2.90602444       0.00000000
Si       0.85463857       2.20281527      -2.24109258       0.00000000
