10
Lattice="16.290000149 0.0 0.0 0.0 16.290000149 0.0 0.0 0.0 29.1751946751" Properties=species:S:1:pos:R:3:initial_magmoms:R:1 pbc="T T T"
Si       1.41481909       1.32603859      -1.23904134       0.00000000
Si      -1.42614064      -1.38940669      -1.17961147       0.00000000
Si       1.29557629      -1.29352375       1.42628774       0.00000000
Si      -1.08159085       1.42071607       1.49835047       0.00000000
H        2.14065263      -0.35816823       2.23397383       0.00000000
Si      -0.53584326      -2.11831904       2.59052389       0.00000000
Si       1.04630671       2.39037833       2.17862849       0.00000000
Si      -2.13775301      -0.34218774       2.67901225       0.00000000
Si       2.64530054       2.46409058       0.38581277       0.00000000
Si       0.00676035      -2.71287146      -2.46139447       0.00000000
