10
Lattice="16.290000149 0.0 0.0 0.0 16.290000149 0.0 0.0 0.0 29.1751946751" Properties=species:S:1:pos:R:3:initial_magmoms:R:1 pbc="T T T"
Si       1.31523832      -1.42433245      -1.29866494       0.00000000
Si       1.41372766       1.29217168       1.34590891       0.00000000
Si      -1.28145286      -1.49936419       1.27680747       0.00000000
Si      -1.28837611       1.50109093      -1.33154538       0.00000000
Si       2.58352886       0.05496246      -2.62639887       0.00000000
Si      -2.66722688      -0.13346397       2.62801576       0.00000000
Si       0.02298519       2.65035044       2.66281010       0.00000000
Si      -2.62998794       0.14618646      -2.68081061       0.00000000
Si      -0.05365926      -2.45428400      -2.93591851       0.00000000
Si       2.74207943       2.69115689       0.00517685       0.00000000
