10
Lattice="16.290000149 0.0 0.0 0.0 16.290000149 0.0 0.0 0.0 29.1751946751" Properties=species:S:1:pos:R:3:initial_magmoms:R:1 pbc="T T T"
Si       0.92678698      -1.03812913       1.83733706       0.00000000
Si      -0.76582549      -2.04628466      -0.88109088       0.00000000
Si      -1.30054474       1.50229639       1.31603468       0.00000000
Si       1.98799904       0.60276259      -1.17444746       0.00000000
H       -0.26184546       2.68310963      -1.44828584       0.00000000
Si      -0.15951168      -1.52717122      -3.06497090       0.00000000
Si       2.26921331      -2.58172067       0.68865130       0.00000000
Si      -1.00734103      -2.07599762       2.73575800       0.00000000
Si       1.99490600       0.72689239       2.89126179       0.00000000
Si       0.28898460       2.31941909       2.87871646       0.00000000
