10
Lattice="16.290000149 0.0 0.0 0.0 16.290000149 0.0 0.0 0.0 29.1751946751" Properties=species:S:1:pos:R:3:initial_magmoms:R:1 pbc="T T T"
Si      -1.41890300       1.22233645      -1.37584383       0.00000000
Si      -1.31294958      -1.48833586       1.26798314       0.00000000
Si       1.50443038      -1.33574743      -1.24662689       0.00000000
Si       0.66269350       1.87867685       1.29543699       0.00000000
Si       0.04657311       2.60273477      -2.59262450       0.00000000
Si       0.25394481      -2.56174913       2.63087318       0.00000000
Si      -2.76061746       2.52447761       0.04729299       0.00000000
Si       0.06864606      -2.74506051      -2.56327425       0.00000000
Si      -2.70687674      -0.18805176      -2.69409583       0.00000000
Si      -0.99056233       3.53163945       1.20032586       0.00000000
