10
Lattice="16.290000149 0.0 0.0 0.0 16.290000149 0.0 0.0 0.0 29.1751946751" Properties=species:S:1:pos:R:3:initial_magmoms:R:1 pbc="T T T"
Si      -1.17141391       0.16604397      -2.01256328       0.00000000
Si       0.22045909       1.85104901       1.43355237       0.00000000
Si       2.31076910      -0.17212014      -0.58933893       0.00000000
Si      -1.16727625      -2.04589370       0.60144664       0.00000000
H       -2.72520299       0.60243679       0.01934315       0.00000000
H       -2.20405331      -0.94157830      -1.79701694       0.00000000
Si      -3.17544231      -0.68155732       0.68386656       0.00000000
Si       1.65359792       0.67680064       2.89350828       0.00000000
Si       1.88136470      -1.98464330      -2.07520242       0.00000000
Si       0.31447031      -0.91123003      -3.43809247       0.00000000
