10
Lattice="16.290000149 0.0 0.0 0.0 16.290000149 0.0 0.0 0.0 29.1751946751" Properties=species:S:1:pos:R:3:initial_magmoms:R:1 pbc="T T T"
Si       1.34630335       1.29195991      -1.36927941       0.00000000
Si      -1.52881651       1.26317548       1.21182089       0.00000000
Si       1.03237876      -0.82489303       1.95377526       0.00000000
Si      -1.41411862      -1.39333258      -1.29759596       0.00000000
Si      -0.79799824      -2.11739051       2.59046554       0.00000000
Si      -2.45125406      -0.46442790       2.49535440       0.00000000
Si       2.60346782       2.60974273       0.09972082       0.00000000
Si      -0.08008164       2.65704889      -2.66401620       0.00000000
Si       2.71104698      -0.07842006      -2.71174682       0.00000000
Si      -0.07517835      -2.72425817      -2.70497817       0.00000000
