10
Lattice="16.290000149 0.0 0.0 0.0 16.290000149 0.0 0.0 0.0 29.1751946751" Properties=species:S:1:pos:R:3:initial_magmoms:R:1 pbc="T T T"
Si      -0.97840999       1.85899853      -0.89754569       0.00000000
Si      -1.76653649      -1.48304161       0.33318072       0.00000000
Si       0.38097423       0.64689220       2.22370416       0.00000000
Si       1.75891277      -0.97204060      -1.25806357       0.00000000
H       -0.38789748      -1.22306950      -2.57284372       0.00000000
Si       1.86816980      -1.22109841       2.57401073       0.00000000
Si       2.49574205      -2.29837241       0.53212638       0.00000000
Si      -2.46480734       0.84481570      -2.36721695       0.00000000
Si      -1.08194923      -3.53269179      -0.43596493       0.00000000
Si      -3.58551048      -0.59623030      -0.81690545       0.00000000
