10
Lattice="16.290000149 0.0 0.0 0.0 16.290000149 0.0 0.0 0.0 29.1751946751" Properties=species:S:1:pos:R:3:initial_magmoms:R:1 pbc="T T T"
Si      -1.56689439       1.07341327      -1.36289004       0.00000000
Si       1.38362374      -1.48248775      -1.21042048       0.00000000
Si      -0.84923029      -1.48778200       1.63028070       0.00000000
Si       0.42940440       1.81252316       1.48586349       0.00000000
H        0.35300430      -1.11874834       2.51291787       0.00000000
Si      -1.88136470       1.98464330       2.07520242       0.00000000
Si      -0.25394481       2.56174913      -2.63087318       0.00000000
Si      -3.05277861       2.15068727       0.06263914       0.00000000
Si       2.69874803      -0.12453705      -2.59396656       0.00000000
Si      -0.12022020      -2.82383895      -2.51250942       0.00000000
