10
Lattice="16.290000149 0.0 0.0 0.0 16.290000149 0.0 0.0 0.0 29.1751946751" Properties=species:S:1:pos:R:3:initial_magmoms:R:1 pbc="T T T"
Si       2.28817487      -0.35456814       0.21560469       0.00000000
Si      -1.58355091      -1.68423452      -0.44267523       0.00000000
Si      -0.78628573       0.62750710       2.17626821       0.00000000
Si      -0.13517442       1.46368909      -1.91608091       0.00000000
H        0.88995529      -2.04578293       1.41893559       0.00000000
H        0.21825342      -1.07107728      -2.75162931       0.00000000
Si      -2.88233634      -0.57357091      -2.00383990       0.00000000
Si       1.24582663      -2.19814981      -2.78979047       0.00000000
Si      -1.36617715       3.31359780      -1.24365102       0.00000000
Si       3.14554038      -1.28997905      -1.73140193       0.00000000
