10
Lattice="16.290000149 0.0 0.0 0.0 16.290000149 0.0 0.0 0.0 29.1751946751" Properties=species:S:1:pos:R:3:initial_magmoms:R:1 pbc="T T T"
H        0.84507634       0.93535552       0.80768609       0.00000000
Si       1.42881220      -1.44471124      -1.12105686       0.00000000
Si      -1.29557629       1.29352375      -1.42628774       0.00000000
Si      -1.83141956      -0.82479529       1.16423614       0.00000000
H        1.65133361       0.19142379       2.46361179       0.00000000
H        2.28289691       1.84678103       1.35906809       0.00000000
Si      -2.37716714       2.71423982       0.07206273       0.00000000
Si       2.77808034      -0.05361039      -2.46626673       0.00000000
Si       0.06906960      -2.75286342      -2.51052550       0.00000000
Si      -1.20317941      -1.22606686       3.31278500       0.00000000
