10
Lattice="16.290000149 0.0 0.0 0.0 16.290000149 0.0 0.0 0.0 29.1751946751" Properties=species:S:1:pos:R:3:initial_magmoms:R:1 pbc="T T T"
Si       1.16892154       0.57013372       1.03898703       0.00000000
Si      -1.30743541      -0.52720956      -0.93100964       0.00000000
Si      -0.07643268      -2.37711827      -1.60343952       0.00000000
Si      -0.37481661       1.83200600       2.24088835       0.00000000
Si       2.83551073       1.36544410      -0.40813180       0.00000000
Si      -3.09790191      -1.10576521       0.51141199       0.00000000
Si       2.31075281      -0.91447174       2.43658039       0.00000000
Si      -2.33396606       0.81161668      -2.54468965       0.00000000
Si      -1.84940372       3.04057740       0.79032685       0.00000000
H       -0.34801956       0.72782092      -3.60549973       0.00000000
