10
Lattice="16.290000149 0.0 0.0 0.0 16.290000149 0.0 0.0 0.0 29.1751946751" Properties=species:S:1:pos:R:3:initial_magmoms:R:1 pbc="T T T"
Si      -1.66658919      -0.79531039       1.44711883       0.00000000
Si       1.11146182       1.69425776       1.25558368       0.00000000
Si      -0.52470905       0.66569086      -2.22956838       0.00000000
Si       1.43963691      -1.91985797      -0.02876674       0.00000000
H       -2.83551073      -1.36544410       0.40813180       0.00000000
Si       2.46800833       0.28287585       2.56724208       0.00000000
Si       0.90335218      -2.86697487      -2.10373576       0.00000000
Si      -0.52475792      -2.27991584       2.84471219       0.00000000
Si       3.48979859      -0.94778479       0.72287380       0.00000000
Si       1.67470161      -0.76084075      -3.27593673       0.00000000
