10
Lattice="16.290000149 0.0 0.0 0.0 16.290000149 0.0 0.0 0.0 29.1751946751" Properties=species:S:1:pos:R:3:initial_magmoms:R:1 pbc="T T T"
Si      -0.65954953       0.44040015      -2.12559090       0.00000000
Si      -1.90654904      -0.79500088       1.12656513       0.00000000
Si       0.84577681       1.94211011       1.04491835       0.00000000
Si       1.71080840      -1.66713491      -0.14809329       0.00000000
H       -1.14921064      -2.61925283      -0.79555213       0.00000000
Si       2.15901146       0.67984687       2.51749837       0.00000000
Si      -0.65300095      -2.16634196       2.53625802       0.00000000
Si       3.41606190      -0.71219881       1.14044085       0.00000000
Si       0.85532275      -3.39831395       1.25531527       0.00000000
Si      -2.36547092       2.03292686      -2.13813623       0.00000000
