10
Lattice="16.290000149 0.0 0.0 0.0 16.290000149 0.0 0.0 0.0 29.1751946751" Properties=species:S:1:pos:R:3:initial_magmoms:R:1 pbc="T T T"
Si      -1.01732680       1.48419820       1.48306267       0.00000000
Si       0.90626158       1.84262708      -1.16966273       0.00000000
Si      -1.33993396      -1.45696132      -1.29505772       0.00000000
Si       1.49626909      -1.32049999       1.28887258       0.00000000
H       -1.89332156       2.32948631       0.57787308       0.00000000
H        2.76561849      -1.01046871      -1.32251157       0.00000000
Si       2.31537917      -2.29446281      -0.65798817       0.00000000
Si       0.43810326      -3.00627066      -1.92973490       0.00000000
Si       0.88246189       2.78169672       2.12894313       0.00000000
Si       2.46830969       2.62195697       0.42102723       0.00000000
