10
Lattice="16.290000149 0.0 0.0 0.0 16.290000149 0.0 0.0 0.0 29.1751946751" Properties=species:S:1:pos:R:3:initial_magmoms:R:1 pbc="T T T"
Si       2.20651310      -0.38169099       0.80780279       0.00000000
Si       0.04657311       2.29589633       0.66609887       0.00000000
Si       0.14696838      -0.41083380      -2.36103180       0.00000000
Si      -1.54140868      -1.36525188       1.27641477       0.00000000
H       -2.15638877      -0.19552887      -1.46415714       0.00000000
H       -0.86760541       2.46542636      -1.88206263       0.00000000
Si       0.47895858       2.04120218       2.95050582       0.00000000
Si      -0.71268751       1.66882907      -3.15678524       0.00000000
Si       2.11615247       0.30763665       3.03582488       0.00000000
Si       2.44802864      -0.35197803      -2.80904609       0.00000000
