10
Lattice="16.290000149 0.0 0.0 0.0 16.290000149 0.0 0.0 0.0 29.1751946751" Properties=species:S:1:pos:R:3:initial_magmoms:R:1 pbc="T T T"
Si       1.77005513       1.00716184       1.15303287       0.00000000
Si       1.34171446      -1.30214116      -1.42313682       0.00000000
Si      -1.23093757       1.49172418      -1.35962242       0.00000000
Si      -1.30197826      -1.28945125       1.50120964       0.00000000
H       -3.15226164      -0.79747696      -1.58015772       0.00000000
Si      -2.29495151       0.47983824       2.77441514       0.00000000
Si      -2.50618394       0.02837718      -2.65768518       0.00000000
Si       3.42331095      -0.64580077       1.24814400       0.00000000
Si       2.76061746      -2.52447761      -0.04729299       0.00000000
Si       2.69249267       2.73476523      -0.13050065       0.00000000
