10
Lattice="16.290000149 0.0 0.0 0.0 16.290000149 0.0 0.0 0.0 29.1751946751" Properties=species:S:1:pos:R:3:initial_magmoms:R:1 pbc="T T T"
Si      -1.35265645       1.35743594       1.34748554       0.00000000
Si       1.35734797       1.37211323      -1.33120578       0.00000000
Si       1.38157120      -1.35633148       1.33024300       0.00000000
Si      -1.36290286      -1.36783222      -1.34062937       0.00000000
Si       2.69070077      -0.04646397      -2.61780269       0.00000000
Si       0.01291797      -2.71288124       2.66871341       0.00000000
Si       0.02003670       2.70494475       2.69237449       0.00000000
Si      -2.68376123       2.72507919      -0.02570335       0.00000000
Si      -2.74784610      -0.02002041      -2.66176971       0.00000000
Si      -2.69592986       0.00402852       2.71667743       0.00000000
