10
Lattice="16.290000149 0.0 0.0 0.0 16.290000149 0.0 0.0 0.0 29.1751946751" Properties=species:S:1:pos:R:3:initial_magmoms:R:1 pbc="T T T"
Si      -1.23100273       1.84990871       0.67242989       0.00000000
Si      -1.54118062      -0.72076735      -1.60055118       0.00000000
Si       1.61780878       0.67706128      -1.56454899       0.00000000
Si       0.13517442      -1.46368909       1.91608091       0.00000000
H        0.35342784      -2.53476638      -0.83554840       0.00000000
H        0.07643268       2.37711827       1.60343952       0.00000000
H        1.53881857      -0.39035727      -2.63627059       0.00000000
Si      -2.74716192      -2.03726000      -0.08775899       0.00000000
H       -0.27158688       3.10493919      -2.00206021       0.00000000
Si       2.42334929      -1.81825724       2.13168560       0.00000000
