10
Lattice="16.290000149 0.0 0.0 0.0 16.290000149 0.0 0.0 0.0 29.1751946751" Properties=species:S:1:pos:R:3:initial_magmoms:R:1 pbc="T T T"
Si       1.35265645      -1.35743594      -1.34748554       0.00000000
Si       1.37269315       1.34750881       1.34488895       0.00000000
Si      -1.34327341      -1.35340742       1.36919189       0.00000000
Si      -1.33110478       1.36764325      -1.37318889       0.00000000
Si       0.00278559       2.70503597       2.67845792       0.00000000
Si       2.71000442       0.01467729      -2.67869132       0.00000000
Si       0.04535136      -2.70158249       2.70372364       0.00000000
Si      -2.68814324       2.72347625      -0.01622141       0.00000000
Si      -0.01024641      -2.72526816      -2.68811491       0.00000000
Si      -2.70042590      -2.71679735       0.02030594       0.00000000
