10
Lattice="16.290000149 0.0 0.0 0.0 16.290000149 0.0 0.0 0.0 29.1751946751" Properties=species:S:1:pos:R:3:initial_magmoms:R:1 pbc="T T T"
Si      -1.37777563       1.36708939       1.31168758       0.00000000
Si      -1.37805256      -1.33501438      -1.34576420       0.00000000
Si       1.35653347       1.35483931      -1.35740511       0.00000000
Si       1.35513253      -1.35008263       1.36989209       0.00000000
Si      -0.00149868       2.70687674       2.64569418       0.00000000
Si      -0.00900837      -2.68247432      -2.68496399       0.00000000
Si      -2.73131174       0.01549179       2.67306051       0.00000000
Si       2.71402805      -2.70322778       0.01750512       0.00000000
Si      -0.00026064       2.72435591      -2.69625479       0.00000000
Si      -2.72868905      -2.69996978       0.00962781       0.00000000
