10
Lattice="16.290000149 0.0 0.0 0.0 16.290000149 0.0 0.0 0.0 29.1751946751" Properties=species:S:1:pos:R:3:initial_magmoms:R:1 pbc="T T T"
Si      -0.09036063       0.68932765       2.22802209       0.00000000
Si       0.74749924      -2.18438639      -0.39406935       0.00000000
Si       1.93412801       1.03786849      -0.89842094       0.00000000
Si      -2.20651310       0.38169099      -0.80780279       0.00000000
H        2.51258591      -0.25676298       1.48554256       0.00000000
Si       2.67801086      -1.64135761       0.86084329       0.00000000
Si      -2.15993999       2.67758732      -0.14170392       0.00000000
Si       1.46784304      -1.83342160      -2.65768518       0.00000000
Si       1.00734103       2.07599762      -2.73575800       0.00000000
Si       0.24151554       0.02971296      -3.61684888       0.00000000
