10
Lattice="16.290000149 0.0 0.0 0.0 16.290000149 0.0 0.0 0.0 29.1751946751" Properties=species:S:1:pos:R:3:initial_magmoms:R:1 pbc="T T T"
Si       1.38313504      -1.31745376      -1.35793026       0.00000000
Si       1.36875097       1.36073629       1.33056393       0.00000000
Si      -1.35679411       1.36951660      -1.33884968       0.00000000
Si      -1.35653347      -1.35483931       1.35740511       0.00000000
Si       0.00583182      -2.68047065      -2.66579589       0.00000000
Si      -0.00926901       2.70971120       2.65056644       0.00000000
Si       0.02028105       2.68900661      -2.70252746       0.00000000
Si       2.71363709      -2.68131773       0.01940150       0.00000000
Si      -2.73430910       0.01225008       2.66909268       0.00000000
Si      -2.73458603      -2.68985369       0.01164090       0.00000000
