10
Lattice="16.290000149 0.0 0.0 0.0 16.290000149 0.0 0.0 0.0 29.1751946751" Properties=species:S:1:pos:R:3:initial_magmoms:R:1 pbc="T T T"
Si       1.28145286       1.49936419      -1.27680747       0.00000000
Si       1.36933741      -1.35604477       1.36050060       0.00000000
Si      -1.38577402       1.36590022       1.35120830       0.00000000
Si      -1.17669187      -1.45995868      -1.45286926       0.00000000
Si       2.59669118       0.07503174      -2.57547240       0.00000000
Si      -2.53323838      -0.04857678      -2.76452766       0.00000000
Si      -2.66297519      -2.64940562      -0.00385696       0.00000000
Si       0.01097946      -2.66708027       2.76110833       0.00000000
Si       2.70731657       0.01803303       2.72428924       0.00000000
Si      -0.03145599       2.74199799       2.71410709       0.00000000
