10
Lattice="16.290000149 0.0 0.0 0.0 16.290000149 0.0 0.0 0.0 29.1751946751" Properties=species:S:1:pos:R:3:initial_magmoms:R:1 pbc="T T T"
Si      -1.36990756       1.35752716       1.33356897       0.00000000
Si      -1.37269315      -1.34750881      -1.34488895       0.00000000
Si       1.35063649       1.36495540      -1.35539202       0.00000000
Si       1.36881613      -1.34298019       1.36577839       0.00000000
Si      -0.00262269       2.71546157       2.66343270       0.00000000
Si      -0.02003670      -2.70494475      -2.69237449       0.00000000
Si       2.71500545      -2.69447191      -0.00884008       0.00000000
Si       2.71968068       0.01749546      -2.69459181       0.00000000
Si      -2.71596656      -2.70091623       0.02430294       0.00000000
Si      -2.70379793       0.02013444      -2.71807784       0.00000000
