10
Lattice="16.290000149 0.0 0.0 0.0 16.290000149 0.0 0.0 0.0 29.1751946751" Properties=species:S:1:pos:R:3:initial_magmoms:R:1 pbc="T T T"
H        1.07759980      -1.69914476      -0.81916069       0.00000000
Si       1.93443752       0.75026854       1.14226722       0.00000000
Si      -1.74891071       1.55435923       0.41316160       0.00000000
Si      -0.24627222       0.53515908      -2.30374047       0.00000000
Si      -0.85929751      -1.98731486       1.06383555       0.00000000
H        1.83270647       2.46693807      -0.80381454       0.00000000
Si       0.69265081       2.05394161       2.63950320       0.00000000
Si      -2.19639701      -0.82546318       2.61571083       0.00000000
Si       1.96118570      -2.44796348      -1.80510722       0.00000000
Si      -2.14606091      -0.76233943      -2.94962093       0.00000000
