10
Lattice="16.290000149 0.0 0.0 0.0 16.290000149 0.0 0.0 0.0 29.1751946751" Properties=species:S:1:pos:R:3:initial_magmoms:R:1 pbc="T T T"
Si      -1.37259541       1.36018243       1.32014838       0.00000000
Si      -1.37384974      -1.36326124      -1.33281042       0.00000000
Si       1.35397594       1.37437102      -1.34202978       0.00000000
Si       1.36093177      -1.32437701       1.39089823       0.00000000
Si      -0.01285281       2.66833460       2.70961703       0.00000000
Si       2.68363091      -2.69698871       0.01820532       0.00000000
Si      -0.01495422      -2.71640639      -2.68519739       0.00000000
Si       2.69967656       0.02179602      -2.70506570       0.00000000
Si      -2.71362080       0.02736720       2.69263707       0.00000000
Si      -2.73048096       2.69369813      -0.05700833       0.00000000
