10
Lattice="16.290000149 0.0 0.0 0.0 16.290000149 0.0 0.0 0.0 29.1751946751" Properties=species:S:1:pos:R:3:initial_magmoms:R:1 pbc="T T T"
Si       1.36752922      -1.35741313       1.32680033       0.00000000
Si       1.37031481       1.34304535      -1.34162133       0.00000000
Si      -1.33988509      -1.36247932      -1.36496148       0.00000000
Si      -1.31831713       1.36366849       1.38976040       0.00000000
Si      -0.00897579       2.69071706      -2.67676576       0.00000000
Si      -0.00832419      -2.68780115       2.68169637       0.00000000
Si       2.71536383       0.00503361       2.67481102       0.00000000
Si      -2.69030493      -0.00104256      -2.72216236       0.00000000
Si      -2.69861283      -2.71487513      -0.00224649       0.00000000
Si       2.71635752      -0.02231730      -2.70048519       0.00000000
