10
Lattice="16.290000149 0.0 0.0 0.0 16.290000149 0.0 0.0 0.0 29.1751946751" Properties=species:S:1:pos:R:3:initial_magmoms:R:1 pbc="T T T"
Si       1.36306576       1.35011521      -1.34979038       0.00000000
Si       1.37402893      -1.35207001       1.34471390       0.00000000
Si      -1.35133696       1.36174627       1.36026428       0.00000000
Si      -1.36943515      -1.36184401      -1.35197852       0.00000000
Si      -0.00229689      -2.67300983       2.70704961       0.00000000
Si      -0.02555901       2.69829029      -2.68432214       0.00000000
Si       2.66424581      -2.72047889      -0.06692790       0.00000000
Si       2.68328882      -0.01861947      -2.73228616       0.00000000
Si       2.72541476       2.69246987       0.02748303       0.00000000
Si      -2.68862706       0.01135413       2.72960204       0.00000000
