10
Lattice="16.290000149 0.0 0.0 0.0 16.290000149 0.0 0.0 0.0 29.1751946751" Properties=species:S:1:pos:R:3:initial_magmoms:R:1 pbc="T T T"
Si      -1.34727912       1.36051149      -1.35492522       0.00000000
Si       1.35715249       1.36338993       1.34888595       0.00000000
Si      -1.37579640      -1.34739478       1.35145337       0.00000000
Si       1.32261769      -1.36969579      -1.38529659       0.00000000
Si       0.01327635      -2.69674436       2.68122957       0.00000000
Si      -2.66241286      -0.02362050      -2.71717341       0.00000000
Si       2.69017949      -0.00847080      -2.70842085       0.00000000
Si      -0.02660157       2.71780733       2.68429296       0.00000000
Si      -2.69147637      -2.71393031      -0.04087445       0.00000000
Si       2.70042590       2.71679735      -0.02030594       0.00000000
