10
Lattice="10.86 0.0 0.0 0.0 10.86 0.0 0.0 0.0 10.86" Properties=species:S:1:pos:R:3:initial_magmoms:R:1 pbc="T T T"
Si      -1.26962088       1.12046964      -1.40707590       0.00000000
Si       1.44537912       1.12046964       1.30792410       0.00000000
Si       1.44537912      -1.59453036      -1.40707590       0.00000000
Si      -2.62712088       2.47796964      -0.04957590       0.00000000
Si      -2.57056200      -0.26668902       2.52932658       0.00000000
Si       0.08787912       2.47796964       2.66542410       0.00000000
Si       0.08787912       2.47796964      -2.76457590       0.00000000
Si       2.80287912       2.47796964      -0.04957590       0.00000000
Si       0.02750838      -2.81755098       2.53993680       0.00000000
Si      -2.58499494       0.03425244      -2.80294428       0.00000000
