10
Lattice="10.86 0.0 0.0 0.0 10.86 0.0 0.0 0.0 10.86" Properties=species:S:1:pos:R:3:initial_magmoms:R:1 pbc="T T T"
Si      -1.28282664      -1.35399222       1.23279462       0.00000000
Si       1.43217336       1.36100778       1.23279462       0.00000000
Si       1.43217336      -1.35399222      -1.48220538       0.00000000
Si      -2.51097318       2.58346368      -0.35499168       0.00000000
Si      -2.64032664       0.00350778       2.59029462       0.00000000
Si       0.07467336      -2.71149222       2.59029462       0.00000000
Si       0.07467336       2.71850778       2.59029462       0.00000000
Si      -2.64032664      -2.71149222      -0.12470538       0.00000000
Si       2.78967336       0.00350778       2.59029462       0.00000000
Si       2.78967336      -2.71149222      -0.12470538       0.00000000
