10
Lattice="10.86 0.0 0.0 0.0 10.86 0.0 0.0 0.0 10.86" Properties=species:S:1:pos:R:3:initial_magmoms:R:1 pbc="T T T"
Si       1.38398754       1.18046028       1.53166182       0.00000000
Si       1.38398754      -1.53453972      -1.18333818       0.00000000
Si      -1.33101246      -1.53453972       1.53166182       0.00000000
Si      -0.10340892       2.50024350      -2.50957224       0.00000000
Si      -2.58479946       2.51486106       0.16952460       0.00000000
Si       2.74148754       2.53796028       0.17416182       0.00000000
Si       2.74148754      -0.17703972      -2.54083818       0.00000000
Si       0.37540848      -2.95176972      -2.40819414       0.00000000
Si       0.02648754       2.53796028       2.88916182       0.00000000
Si      -2.68851246      -0.17703972       2.88916182       0.00000000
