10
Lattice="10.86 0.0 0.0 0.0 10.86 0.0 0.0 0.0 10.86" Properties=species:S:1:pos:R:3:initial_magmoms:R:1 pbc="T T T"
Si       1.35750000       1.35750000       1.35750000       0.00000000
Si      -1.35750000       1.35750000      -1.35750000       0.00000000
Si      -1.35750000      -1.35750000       1.35750000       0.00000000
Si       1.35750000      -1.35750000      -1.35750000       0.00000000
Si      -2.51791272       2.50366440      -0.05014062       0.00000000
Si       2.41793556      -2.75497566      -0.11894958       0.00000000
Si      -0.13974648       2.74749312       2.45578266       0.00000000
Si       2.53489776       2.72725008      -0.00587526       0.00000000
Si      -0.14448144       2.76200208      -2.60043786       0.00000000
Si      -0.06231468      -2.76486912       2.63129112       0.00000000
