10
Lattice="10.86 0.0 0.0 0.0 10.86 0.0 0.0 0.0 10.86" Properties=species:S:1:pos:R:3:initial_magmoms:R:1 pbc="T T T"
Si      -1.17739776      -1.36975008       1.36337526       0.00000000
Si       1.53760224       1.34524992       1.36337526       0.00000000
Si       1.53760224      -1.36975008      -1.35162474       0.00000000
Si      -2.67464424       0.02024304       2.46165792       0.00000000
Si      -2.53489776      -2.72725008       0.00587526       0.00000000
Si      -2.67937920       0.03475200      -2.59456260       0.00000000
Si       0.31445130       2.34407670       2.94155046       0.00000000
Si       0.18010224      -2.72725008      -2.70912474       0.00000000
Si       0.18010224      -2.72725008       2.72087526       0.00000000
Si       2.89510224       2.70274992       0.00587526       0.00000000
