10
Lattice="10.86 0.0 0.0 0.0 10.86 0.0 0.0 0.0 10.86" Properties=species:S:1:pos:R:3:initial_magmoms:R:1 pbc="T T T"
Si       1.14309102      -1.42344192      -1.45095030       0.00000000
Si       1.48722270       1.01526882       1.67026800       0.00000000
Si      -1.57190898      -1.42344192       1.26404970       0.00000000
Si      -1.57190898       1.29155808      -1.45095030       0.00000000
Si       2.28437928       2.74724334      -0.05602674       0.00000000
Si       0.15521112       2.62421040       2.49240258       0.00000000
Si       2.50059102      -0.06594192      -2.80845030       0.00000000
Si      -0.11787444      -2.66150364       2.68644906       0.00000000
Si       2.63073726      -2.72916144      -0.18831240       0.00000000
Si      -0.21440898       2.64905808      -2.80845030       0.00000000
