10
Lattice="10.86 0.0 0.0 0.0 10.86 0.0 0.0 0.0 10.86" Properties=species:S:1:pos:R:3:initial_magmoms:R:1 pbc="T T T"
Si       1.49562834       1.45665180       1.07338068       0.00000000
Si      -1.21937166       1.45665180      -1.64161932       0.00000000
Si       1.49562834      -1.25834820      -1.64161932       0.00000000
Si      -2.44672542      -2.56406772      -0.37898142       0.00000000
Si      -0.03684798      -2.64191220       2.47790448       0.00000000
Si       0.29267700       2.86298922       2.22154332       0.00000000
Si       2.85312834       0.09915180       2.43088068       0.00000000
Si       2.85312834      -2.61584820      -0.28411932       0.00000000
Si      -2.57687166       0.09915180      -2.99911932       0.00000000
Si       0.13812834      -2.61584820      -2.99911932       0.00000000
