10
Lattice="16.28999089631971 0.0 0.0 0.0 16.28999089631971 0.0 0.0 0.0 34.56409401068381" Properties=species:S:1:pos:R:3:initial_magmoms:R:1 pbc="T T T"
Si      -1.38114765      -1.38593269      -1.38360146       0.00000000
Si       1.40305770       1.44203478      -1.45639348       0.00000000
Si      -1.88230950       1.13601084       1.39756536       0.00000000
Si       1.83725136      -0.93272793       1.82149421       0.00000000
Si      -0.37882395       2.24210184       2.81607657       0.00000000
Si      -2.58396215       2.78713266      -0.11945358       0.00000000
Si       0.07418466      -2.61471997      -2.84068622       0.00000000
Si      -2.88057536      -2.60216038       0.11299009       0.00000000
Si      -2.64098530       0.08339665      -2.86014581       0.00000000
Si       0.61455654       0.39947478       3.83122458       0.00000000
