10
Lattice="16.28999089631971 0.0 0.0 0.0 16.28999089631971 0.0 0.0 0.0 34.56409401068381" Properties=species:S:1:pos:R:3:initial_magmoms:R:1 pbc="T T T"
Si      -1.35022923      -1.34149097       1.36968594       0.00000000
Si      -1.48890600       1.24183329      -1.32953627       0.00000000
Si       1.35720135       1.38236386       1.36560738       0.00000000
Si       1.37973042      -1.40477762      -1.42659921       0.00000000
Si       0.50280714       1.82148036      -2.62318912       0.00000000
Si       2.47464648       0.25241127      -2.90024161       0.00000000
Si      -2.70977634      -2.70050051      -0.01205942       0.00000000
Si      -0.00066789      -2.69354468       2.72743344       0.00000000
Si       2.72906370      -2.70652781      -0.00802579       0.00000000
Si      -2.71414206       0.02026079       2.72525591       0.00000000
