10
Lattice="16.28999089631971 0.0 0.0 0.0 16.28999089631971 0.0 0.0 0.0 34.56409401068381" Properties=species:S:1:pos:R:3:initial_magmoms:R:1 pbc="T T T"
Si      -1.35218403       1.35452816       1.36217171       0.00000000
Si       1.36291914      -1.36038122       1.35926832       0.00000000
Si      -1.34198649      -1.35881891      -1.38186634       0.00000000
Si       1.35448092       1.36389491      -1.36553134       0.00000000
Si       2.58815520      -0.13880872      -2.69552385       0.00000000
Si      -2.70783294       2.71013309       0.00117518       0.00000000
Si      -2.70937886      -0.00231970       2.71822556       0.00000000
Si      -2.71079284      -2.71908675       0.00231580       0.00000000
Si       0.00513135       2.71221821       2.71829469       0.00000000
Si       0.00534312      -2.71775097       2.71794905       0.00000000
