10
Lattice="16.28999089631971 0.0 0.0 0.0 16.28999089631971 0.0 0.0 0.0 34.56409401068381" Properties=species:S:1:pos:R:3:initial_magmoms:R:1 pbc="T T T"
Si      -1.35780408      -1.35607052      -1.35646863       0.00000000
Si       1.35671265      -1.35326481       1.36040894       0.00000000
Si       1.35702216       1.35819504      -1.35612299       0.00000000
Si      -1.35604476       1.35705474       1.36217171       0.00000000
Si      -2.71414858      -2.71186865       0.00069128       0.00000000
Si      -0.00032580      -2.71392119      -2.71383592       0.00000000
Si       2.71415835      -2.71390490       0.00155539       0.00000000
Si      -2.71504778       0.00151008      -2.71355941       0.00000000
Si       2.71503801       0.00115659      -2.71373223       0.00000000
Si      -0.00053757       2.71604799      -2.71349028       0.00000000
