10
Lattice="16.28999089631971 0.0 0.0 0.0 16.28999089631971 0.0 0.0 0.0 34.56409401068381" Properties=species:S:1:pos:R:3:initial_magmoms:R:1 pbc="T T T"
Si       0.99338049      -1.84262706       1.01514801       0.00000000
Si      -1.50348555      -1.10609100      -1.41851121       0.00000000
Si      -1.35531171       1.05749793       1.77061583       0.00000000
Si       2.36841939       0.67572549      -0.90136295       0.00000000
Si       0.37882395      -2.24210184      -2.81607657       0.00000000
Si       2.59882515      -0.82093455       2.44755399       0.00000000
Si      -0.82051101      -3.00967687       1.97240113       0.00000000
Si       1.68358779       3.22612047       0.65540472       0.00000000
Si      -2.20513820       0.54503082      -2.93553014       0.00000000
Si      -3.45156918      -0.01945026       1.87904346       0.00000000
