10
Lattice="16.28999089631971 0.0 0.0 0.0 16.28999089631971 0.0 0.0 0.0 34.56409401068381" Properties=species:S:1:pos:R:3:initial_magmoms:R:1 pbc="T T T"
Si       1.39983228       1.49982030      -1.12464712       0.00000000
Si       0.71224767      -1.41929883       1.78171091       0.00000000
Si      -0.94899024      -1.45684728      -1.64317795       0.00000000
Si      -1.96359660       1.35446463       0.24319310       0.00000000
Si      -2.53557108      -2.33543214      -0.03048555       0.00000000
Si      -1.60427178       0.33392871      -3.14001144       0.00000000
Si      -1.96864650       2.31549318      -1.91329649       0.00000000
Si      -1.42281747      -2.58106905       2.06378864       0.00000000
Si       2.44951101       2.61930168       0.63117527       0.00000000
Si      -3.71337066      -0.26756325       0.16967523       0.00000000
