10
Lattice="16.28999089631971 0.0 0.0 0.0 16.28999089631971 0.0 0.0 0.0 34.56409401068381" Properties=species:S:1:pos:R:3:initial_magmoms:R:1 pbc="T T T"
Si      -1.20979314       1.43793459       1.38951192       0.00000000
Si       1.33711578       1.36197432      -1.35041991       0.00000000
Si       1.45121094      -1.19509956       1.41235880       0.00000000
Si      -1.37339361      -1.35428544      -1.35187160       0.00000000
Si      -0.00817758      -2.61715140       2.66046893       0.00000000
Si      -2.74754633       0.06532290       2.55207587       0.00000000
Si       2.69939961       0.00663003      -2.71003387       0.00000000
Si       2.70277164      -2.70806589       0.02505898       0.00000000
Si      -0.01583388      -2.70938538      -2.71055233       0.00000000
Si      -0.01601307       2.72075580      -2.71131274       0.00000000
