10
Lattice="16.28999089631971 0.0 0.0 0.0 16.28999089631971 0.0 0.0 0.0 34.56409401068381" Properties=species:S:1:pos:R:3:initial_magmoms:R:1 pbc="T T T"
Si       1.62355914       1.64706561       0.37042360       0.00000000
Si      -0.91067616      -0.70113789      -2.08832916       0.00000000
Si      -1.97250723      -0.10031382       1.41460547       0.00000000
Si       1.73781720      -1.85911254       0.55706981       0.00000000
Si      -0.98960121       0.96008373       3.25345086       0.00000000
Si       0.31607487       3.58248051       0.49157082       0.00000000
Si      -2.94559038      -1.80599085      -1.42684116       0.00000000
Si       1.30701186      -2.21936589       2.92837537       0.00000000
Si       2.42331669       2.53742814      -1.76632988       0.00000000
Si      -2.47775787      -2.36736054       2.10841091       0.00000000
