10
Lattice="16.28999089631971 0.0 0.0 0.0 16.28999089631971 0.0 0.0 0.0 34.56409401068381" Properties=species:S:1:pos:R:3:initial_magmoms:R:1 pbc="T T T"
Si      -2.09898279      -1.02167622       0.08039613       0.00000000
Si       0.16444755       1.81361457       1.51027893       0.00000000
Si       1.26949599      -1.83734910       0.86904550       0.00000000
Si       0.77695155       1.01138094      -2.03451284       0.00000000
Si       2.50831791       1.33850043       1.50381544       0.00000000
Si       2.31917472      -0.71786772       2.62486789       0.00000000
Si      -2.09393289      -1.98270477       2.23688572       0.00000000
Si      -1.73460807      -3.00324069      -1.14631882       0.00000000
Si       1.32779790      -0.89086752      -3.28998513       0.00000000
Si      -3.61839996       0.80299926      -0.14627533       0.00000000
