10
Lattice="16.28999089631971 0.0 0.0 0.0 16.28999089631971 0.0 0.0 0.0 34.56409401068381" Properties=species:S:1:pos:R:3:initial_magmoms:R:1 pbc="T T T"
Si      -0.16444755      -1.81361457      -1.51027893       0.00000000
Si      -0.64752750      -0.50500629       2.23170111       0.00000000
Si       2.34387036      -0.47511414      -0.00646349       0.00000000
Si      -1.15442343       1.77054381      -1.20303853       0.00000000
Si       0.86899005       2.52501516      -2.24300357       0.00000000
Si       2.15472717      -2.53148229       1.11458896       0.00000000
Si       0.61250400      -0.80223363      -3.54479177       0.00000000
Si      -2.58910002      -1.81354941       1.97734380       0.00000000
Si       1.07768124      -1.89392427       3.10209461       0.00000000
Si       1.10504844      -3.65096367      -0.64123343       0.00000000
