10
Lattice="16.28999089631971 0.0 0.0 0.0 16.28999089631971 0.0 0.0 0.0 34.56409401068381" Properties=species:S:1:pos:R:3:initial_magmoms:R:1 pbc="T T T"
Si       2.02341348       0.75447135      -1.03996504       0.00000000
Si      -1.53671715      -1.01191851      -1.53910540       0.00000000
Si      -0.88000209       1.81208331       1.33275765       0.00000000
Si       1.15442343      -1.77054381       1.20303853       0.00000000
Si       0.02116071      -1.29557628      -3.27215004       0.00000000
Si       0.96615990       3.25769768       1.10843655       0.00000000
Si       2.92778541       2.07767547       0.59954911       0.00000000
Si       0.98997588      -3.58415838      -0.30724040       0.00000000
Si       1.42643385       2.49905283      -2.44786507       0.00000000
Si      -2.62842408      -2.78115912      -0.45351573       0.00000000
