10
Lattice="16.28999089631971 0.0 0.0 0.0 16.28999089631971 0.0 0.0 0.0 34.56409401068381" Properties=species:S:1:pos:R:3:initial_magmoms:R:1 pbc="T T T"
Si       2.11970367      -1.04627412       0.31985630       0.00000000
Si      -1.26522801      -1.88404439      -0.81398487       0.00000000
Si      -0.09402588       1.91778912      -1.46811071       0.00000000
Si       0.03098358       1.02271878       2.22471915       0.00000000
Si       2.36744199      -2.32228122      -1.64006718       0.00000000
Si      -3.41743023      -0.97560810      -1.06630290       0.00000000
Si       3.70586097       0.77525739       0.50442867       0.00000000
Si       1.38067524      -0.43220628       3.63403631       0.00000000
Si      -1.16983377       1.42412067      -3.53259064       0.00000000
Si       2.27269935      -2.28955461       2.35509499       0.00000000
