10
Lattice="16.28999089631971 0.0 0.0 0.0 16.28999089631971 0.0 0.0 0.0 34.56409401068381" Properties=species:S:1:pos:R:3:initial_magmoms:R:1 pbc="T T T"
Si      -1.35754344       1.35672894      -1.35743642       0.00000000
Si       1.35736425      -1.35782037      -1.35743642       0.00000000
Si      -1.35783666      -1.35681039       1.35816227       0.00000000
Si       1.36021500       1.35749457       1.35691796       0.00000000
Si       2.71168227       0.00000000       2.71262618       0.00000000
Si      -0.00263898       2.71226871      -2.71435438       0.00000000
Si       2.71472850       0.00006516      -2.71362854       0.00000000
Si       2.71458189       2.71428867      -0.00038021       0.00000000
Si       2.71445157      -2.71538010      -0.00003456       0.00000000
Si      -2.71529865       2.71467963       0.00044933       0.00000000
