10
Lattice="16.28999089631971 0.0 0.0 0.0 16.28999089631971 0.0 0.0 0.0 34.56409401068381" Properties=species:S:1:pos:R:3:initial_magmoms:R:1 pbc="T T T"
Si      -1.35614250       1.36019871      -1.36044350       0.00000000
Si       1.36098063      -1.35576783      -1.36144586       0.00000000
Si      -1.35277047      -1.35449721       1.37464935       0.00000000
Si       1.35404109       1.37433843       1.37499499       0.00000000
Si      -2.60433117       0.15846912       2.76194917       0.00000000
Si       2.71244790      -2.71326240      -0.00573764       0.00000000
Si      -2.71606428      -2.71306692      -0.00027651       0.00000000
Si       2.71353933       2.71642266      -0.00366380       0.00000000
Si       0.00076563      -2.71326240      -2.71836382       0.00000000
Si      -2.71453302       0.00141723      -2.71791449       0.00000000
