10
Lattice="16.28999089631971 0.0 0.0 0.0 16.28999089631971 0.0 0.0 0.0 34.56409401068381" Properties=species:S:1:pos:R:3:initial_magmoms:R:1 pbc="T T T"
Si       0.05639598       2.05956099      -1.16049010       0.00000000
Si      -0.94317471      -1.95400179      -0.94197578       0.00000000
Si      -2.09653929       0.67131090       1.03191160       0.00000000
Si       2.15246286      -0.33453144       1.13135256       0.00000000
Si       2.65137669       1.91115909       1.39424720       0.00000000
Si      -3.19168341       1.22482881      -0.98452420       0.00000000
Si       2.42615115       2.46972690      -0.91010767       0.00000000
Si      -2.27644605      -2.82222621       0.80762507       0.00000000
Si      -2.50685181      -1.32556617      -2.54129187       0.00000000
Si      -3.10036167      -1.09895598       2.21390059       0.00000000
