10
Lattice="16.28999089631971 0.0 0.0 0.0 16.28999089631971 0.0 0.0 0.0 34.56409401068381" Properties=species:S:1:pos:R:3:initial_magmoms:R:1 pbc="T T T"
Si       1.07580789       0.49366845       2.06447992       0.00000000
Si       0.10129122       2.21956137      -0.91149023       0.00000000
Si       1.64006091      -1.45862289      -1.03961940       0.00000000
Si      -2.24933949      -0.75947238       0.79487091       0.00000000
Si      -1.86180039      -1.31473332      -1.40682854       0.00000000
Si       2.43186894       2.40277500      -1.01957221       0.00000000
Si      -0.31405491       2.23686135       2.86982377       0.00000000
Si       2.91991734       1.91883168       1.37928094       0.00000000
Si      -2.09826603       0.26767728      -3.11958405       0.00000000
Si       1.83177792      -0.62996688      -3.27311784       0.00000000
