10
Lattice="16.28999089631971 0.0 0.0 0.0 16.28999089631971 0.0 0.0 0.0 34.56409401068381" Properties=species:S:1:pos:R:3:initial_magmoms:R:1 pbc="T T T"
Si      -1.37461536      -1.32457248       1.42836198       0.00000000
Si      -1.48677201       1.22723973      -1.54162858       0.00000000
Si       1.21094973      -1.48050036      -1.56292008       0.00000000
Si       1.22991129       1.62349398       1.45017194       0.00000000
Si       2.62031166       2.64249864      -0.19480334       0.00000000
Si      -2.64833046       2.71624347       0.01659077       0.00000000
Si       2.57823459      -2.79184536      -0.18744119       0.00000000
Si      -2.74742253      -2.69636967      -0.17596590       0.00000000
Si       2.86040997       0.26961579       2.61729835       0.00000000
Si      -0.14314023       2.57328243      -2.93881374       0.00000000
