10
Lattice="16.28999089631971 0.0 0.0 0.0 16.28999089631971 0.0 0.0 0.0 34.56409401068381" Properties=species:S:1:pos:R:3:initial_magmoms:R:1 pbc="T T T"
Si      -1.36728486       1.31134500      -1.37547889       0.00000000
Si       1.37197638       1.26630315       1.44204937       0.00000000
Si      -1.25375985      -1.44414108       1.38384341       0.00000000
Si       1.34122086      -1.41747435      -1.38474207       0.00000000
Si       0.46379259      -1.61816715       3.10212917       0.00000000
Si       2.53276920      -0.54134928       2.57703116       0.00000000
Si       2.65093686       2.59222770      -0.05917376       0.00000000
Si      -2.57823459       2.79184536       0.18744119       0.00000000
Si      -0.00778662       2.65342923      -2.75413768       0.00000000
Si       2.71197549      -0.06224409      -2.75496722       0.00000000
