10
Lattice="16.28999089631971 0.0 0.0 0.0 16.28999089631971 0.0 0.0 0.0 34.56409401068381" Properties=species:S:1:pos:R:3:initial_magmoms:R:1 pbc="T T T"
Si       1.85533326       0.69178743      -1.30323989       0.00000000
Si      -1.63339830      -1.20808269      -1.27621076       0.00000000
Si      -1.08398547       1.63201365       1.45148538       0.00000000
Si       0.91354320      -1.67391153       1.57415341       0.00000000
Si      -2.11411620      -2.99561697       0.20102488       0.00000000
Si      -0.55635237      -1.84564071      -3.26371640       0.00000000
Si       1.07753463       1.67190786      -3.27730010       0.00000000
Si       2.89608507      -1.32743952      -2.16782662       0.00000000
Si       2.92809492       2.62871730      -0.32898123       0.00000000
Si      -3.35860704       0.18083529      -2.14660426       0.00000000
