10
Lattice="16.28999089631971 0.0 0.0 0.0 16.28999089631971 0.0 0.0 0.0 34.56409401068381" Properties=species:S:1:pos:R:3:initial_magmoms:R:1 pbc="T T T"
Si       1.40827050      -1.30013748       1.36943017       0.00000000
Si       1.35697329       1.35390535      -1.37720710       0.00000000
Si      -1.35518139      -1.36935369      -1.37458022       0.00000000
Si      -1.40584329       1.24742304       1.54760817       0.00000000
Si       0.01787013      -2.31914214       3.01440545       0.00000000
Si      -2.71551042       2.68465946       0.00947057       0.00000000
Si       2.70096345       2.70894622      -0.00193559       0.00000000
Si      -2.69881317      -2.71539639       0.02260493       0.00000000
Si       2.71195920      -2.72104902      -0.01814616       0.00000000
Si       0.00379557       2.70539337      -2.73526567       0.00000000
