10
Lattice="16.28999089631971 0.0 0.0 0.0 16.28999089631971 0.0 0.0 0.0 34.56409401068381" Properties=species:S:1:pos:R:3:initial_magmoms:R:1 pbc="T T T"
Si       1.35674686      -1.35710361       1.35754012       0.00000000
Si      -1.35757060       1.35738054       1.35754012       0.00000000
Si      -1.35728810      -1.35734796      -1.35857704       0.00000000
Si       1.35839215       1.35811359      -1.35798945       0.00000000
Si      -0.00206883      -2.71435383       2.71459633       0.00000000
Si       2.71440433      -2.71476108       0.00000000       0.00000000
Si      -2.71505986      -0.00027693       2.71421613       0.00000000
Si       2.71539802       0.00086337       2.71452720       0.00000000
Si      -2.71515760      -2.71495656       0.00010369       0.00000000
Si       2.71446949       2.71565703      -0.00010369       0.00000000
