10
Lattice="16.28999089631971 0.0 0.0 0.0 16.28999089631971 0.0 0.0 0.0 34.56409401068381" Properties=species:S:1:pos:R:3:initial_magmoms:R:1 pbc="T T T"
Si       0.60619555       0.61970418       2.24020388       0.00000000
Si       0.16954632       2.13187230      -1.22215248       0.00000000
Si      -1.76414184      -1.87511095       0.42092177       0.00000000
Si       2.55427919      -0.46693656      -1.05735079       0.00000000
Si      -1.32463764      -1.06807014      -2.70657746       0.00000000
Si       1.85262653       1.18418526      -2.57436972       0.00000000
Si       2.70245303       1.69665237       2.13177625       0.00000000
Si       1.38394857      -1.28827347       3.35849120       0.00000000
Si      -1.30258098       1.61743410       3.32693416       0.00000000
Si      -3.49953183      -0.71092818       1.62582676       0.00000000
