10
Lattice="16.28999089631971 0.0 0.0 0.0 16.28999089631971 0.0 0.0 0.0 34.56409401068381" Properties=species:S:1:pos:R:3:initial_magmoms:R:1 pbc="T T T"
Si      -1.35503478       1.34843733       1.34927929       0.00000000
Si       1.35112518       1.36024758      -1.36130760       0.00000000
Si      -1.36068741      -1.35711990      -1.36085827       0.00000000
Si       1.33266861      -1.37863899       1.41222054       0.00000000
Si      -2.65435124      -0.03354111       2.74916045       0.00000000
Si      -2.71916101       2.71068858      -0.01171723       0.00000000
Si       2.71011843       0.00324171      -2.72123264       0.00000000
Si       2.71441899       2.71881729       0.01361826       0.00000000
Si      -0.00464265      -2.71417464      -2.72302998       0.00000000
Si      -0.00418653       2.71749780      -2.72199305       0.00000000
