10
Lattice="16.28999089631971 0.0 0.0 0.0 16.28999089631971 0.0 0.0 0.0 34.56409401068381" Properties=species:S:1:pos:R:3:initial_magmoms:R:1 pbc="T T T"
Si      -0.79526151      -2.16280375      -0.30609979       0.00000000
Si       0.19171701       0.82865601      -2.23349844       0.00000000
Si       2.02551489      -0.85669110       1.01905375       0.00000000
Si      -1.64006091       1.45862289       1.03961940       0.00000000
Si      -3.50186130       0.14388957      -0.36720914       0.00000000
Si       1.65662784       2.59623504      -1.78641163       0.00000000
Si       2.87280666      -1.98774327      -0.88058992       0.00000000
Si       0.92675439      -3.14697094      -1.58479916       0.00000000
Si      -2.83294503      -1.92810558      -1.36922279       0.00000000
Si      -0.56425302       1.95229134       3.10409933       0.00000000
