10
Lattice="16.28999089631971 0.0 0.0 0.0 16.28999089631971 0.0 0.0 0.0 34.56409401068381" Properties=species:S:1:pos:R:3:initial_magmoms:R:1 pbc="T T T"
Si       1.87528851      -0.80127578       1.18696622       0.00000000
Si      -0.15299568       1.24328049      -2.03523869       0.00000000
Si      -0.89202411       1.85734833       1.27894132       0.00000000
Si       1.15070931      -2.03873815      -0.77520393       0.00000000
Si      -2.07710532       0.34644595       2.69131882       0.00000000
Si       0.67539969      -2.31882841       2.66527131       0.00000000
Si       1.43316162       3.06481200      -1.85066632       0.00000000
Si      -3.69175383      -0.76257237       1.18133227       0.00000000
Si      -2.27269935       2.28955461      -2.35509499       0.00000000
Si       0.09474264      -0.03272661      -3.99516217       0.00000000
