10
Lattice="16.28999089631971 0.0 0.0 0.0 16.28999089631971 0.0 0.0 0.0 34.56409401068381" Properties=species:S:1:pos:R:3:initial_magmoms:R:1 pbc="T T T"
Si      -1.58615730      -1.82153151      -0.18457237       0.00000000
Si       2.32079462      -0.70657875      -0.01337631       0.00000000
Si       0.05069448       1.33701804      -2.12887287       0.00000000
Si       0.95132201       0.79917111       2.98381621       0.00000000
Si      -3.70586097      -0.77525739      -0.50442867       0.00000000
Si       2.48421590      -2.13239358      -1.97043097       0.00000000
Si      -1.43316162      -3.06481200       1.85066632       0.00000000
Si       3.58434476       1.16655948      -0.86873442       0.00000000
Si       2.03319141       2.59688664      -2.03281920       0.00000000
Si       2.42278631       2.94708906       0.97273784       0.00000000
