10
Lattice="16.28999089631971 0.0 0.0 0.0 16.28999089631971 0.0 0.0 0.0 34.56409401068381" Properties=species:S:1:pos:R:3:initial_magmoms:R:1 pbc="T T T"
Si       1.35729909       1.35672894      -1.35812770       0.00000000
Si      -1.36085031       1.35726651       1.35453304       0.00000000
Si      -1.35808101      -1.35811359      -1.35812770       0.00000000
Si       1.35894438      -1.35896067       1.35705622       0.00000000
Si      -2.70045846       0.00762372       2.69924987       0.00000000
Si       2.72486088      -0.00677664       2.69897335       0.00000000
Si      -2.71231758       2.71476108      -0.00117518       0.00000000
Si       2.71485882       2.71357191      -0.00100236       0.00000000
Si      -0.00081450       2.71446786      -2.71511479       0.00000000
Si       2.71476108      -0.00110772      -2.71511479       0.00000000
