10
Lattice="16.28999089631971 0.0 0.0 0.0 16.28999089631971 0.0 0.0 0.0 34.56409401068381" Properties=species:S:1:pos:R:3:initial_magmoms:R:1 pbc="T T T"
Si       1.53789003      -1.62510669       0.68768760       0.00000000
Si      -2.19129822      -0.64830942      -0.58358049       0.00000000
Si       1.48934583       0.87151500      -1.62192102       0.00000000
Si       0.10011834       1.63580922       1.71375787       0.00000000
Si       3.20227910      -0.36196380      -0.54559453       0.00000000
Si      -2.18062827       2.28934773       1.48397564       0.00000000
Si      -3.55423365       0.40959576       1.08071613       0.00000000
Si      -2.41652376      -0.08974161      -2.88793536       0.00000000
Si       0.81857250      -2.20690404       2.94555374       0.00000000
Si       1.83348837       3.14346501      -1.16163072       0.00000000
