10
Lattice="16.28999089631971 0.0 0.0 0.0 16.28999089631971 0.0 0.0 0.0 34.56409401068381" Properties=species:S:1:pos:R:3:initial_magmoms:R:1 pbc="T T T"
Si      -1.53789003       1.62510669      -0.68768760       0.00000000
Si      -0.32619096      -1.95737382      -1.33967047       0.00000000
Si       1.66438907       1.26314289      -1.23328213       0.00000000
Si      -0.71931753      -0.58179735       2.25786614       0.00000000
Si      -0.04854420       2.49662169      -2.30960862       0.00000000
Si      -0.65353851      -3.49353711       0.42323757       0.00000000
Si       1.23670422      -1.49942934       3.10848897       0.00000000
Si      -2.18422836      -2.34937638       1.81077933       0.00000000
Si      -1.43777169       3.26091591       1.02607027       0.00000000
Si      -3.72918825       0.97679727      -1.27126809       0.00000000
