10
Lattice="16.28999089631971 0.0 0.0 0.0 16.28999089631971 0.0 0.0 0.0 34.56409401068381" Properties=species:S:1:pos:R:3:initial_magmoms:R:1 pbc="T T T"
Si       1.35503478      -1.34843733      -1.34927929       0.00000000
Si      -1.29931646      -1.38197844       1.39988115       0.00000000
Si      -1.36412623       1.36225125      -1.36099653       0.00000000
Si       1.35850455       1.46129445       1.29974892       0.00000000
Si      -0.30633345       2.61133587       2.51066806       0.00000000
Si       2.68770339      -2.72707632       0.06294125       0.00000000
Si      -0.00565263      -2.70555723      -2.71013756       0.00000000
Si       2.70615996       0.01181025      -2.71058690       0.00000000
Si      -0.00671148       2.72416041      -2.71259161       0.00000000
Si      -2.72338460       0.01001835      -2.71670474       0.00000000
