10
Lattice="16.28999089631971 0.0 0.0 0.0 16.28999089631971 0.0 0.0 0.0 34.56409401068381" Properties=species:S:1:pos:R:3:initial_magmoms:R:1 pbc="T T T"
Si      -1.34350146       1.42995249      -1.34606483       0.00000000
Si       1.91130570       1.07755092       0.93340388       0.00000000
Si      -1.66889421      -0.47871423       1.67245375       0.00000000
Si       0.23928381      -2.03348070      -1.44536753       0.00000000
Si      -2.99468844      -1.71545103       0.04517530       0.00000000
Si      -2.91193524      -0.27912915      -1.86525238       0.00000000
Si       1.80040338       3.31042122       0.17665718       0.00000000
Si      -1.60482564      -3.45864393      -0.76016854       0.00000000
Si       3.95823609      -0.06361245       0.54331330       0.00000000
Si      -0.34358868       2.24554392      -3.28912102       0.00000000
