10
Lattice="16.28999089631971 0.0 0.0 0.0 16.28999089631971 0.0 0.0 0.0 34.56409401068381" Properties=species:S:1:pos:R:3:initial_magmoms:R:1 pbc="T T T"
Si      -0.11090232       2.23287030      -0.75674670       0.00000000
Si       2.04693039      -1.14116337      -0.39009058       0.00000000
Si      -1.91130570      -1.07755092      -0.93340388       0.00000000
Si       1.32214920       0.35152191      -3.34331755       0.00000000
Si      -0.37919862       2.03986638      -3.13309862       0.00000000
Si      -1.33196814       3.56871546       0.93962542       0.00000000
Si       2.02236182       3.33668070      -0.56916725       0.00000000
Si      -3.58019991      -1.55626515       0.73904987       0.00000000
Si      -3.25480716       0.35240157      -2.27946871       0.00000000
Si       2.70654182      -2.73163752       1.25170480       0.00000000
