10
Lattice="16.28999089631971 0.0 0.0 0.0 16.28999089631971 0.0 0.0 0.0 34.56409401068381" Properties=species:S:1:pos:R:3:initial_magmoms:R:1 pbc="T T T"
Si      -1.07453075       1.53243288      -1.31931221       0.00000000
Si      -1.79210037      -1.07784414       1.08638465       0.00000000
Si       1.66483800      -1.15004142      -1.21091915       0.00000000
Si       1.09270062       1.78233777       1.32670893       0.00000000
Si       0.97034643      -0.01967832       2.95381456       0.00000000
Si      -2.63022317       2.34189927       0.23631484       0.00000000
Si      -2.44116143       0.08729811      -2.56766429       0.00000000
Si      -0.95911610      -1.37640726       3.17461012       0.00000000
Si      -0.64483965       3.37558122       1.17134324       0.00000000
Si       0.30633345      -2.61133587      -2.51066806       0.00000000
