10
Lattice="16.28999089631971 0.0 0.0 0.0 16.28999089631971 0.0 0.0 0.0 34.56409401068381" Properties=species:S:1:pos:R:3:initial_magmoms:R:1 pbc="T T T"
Si      -2.07565551       0.76736556       0.86914919       0.00000000
Si       1.56724365       1.71453457      -0.60127732       0.00000000
Si       1.00213215      -1.35205371       1.72499120       0.00000000
Si      -0.70920144      -0.69398658      -2.24635629       0.00000000
Si      -2.51594163      -1.94908221       0.56239269       0.00000000
Si      -0.80140284      -2.83064814       1.90392962       0.00000000
Si      -1.44663345       3.08407886       1.13007369       0.00000000
Si       3.01797404      -2.16999090       0.85833063       0.00000000
Si       3.42054881       0.63228562      -1.62620697       0.00000000
Si      -2.24228592       0.25261263       3.16631473       0.00000000
