10
Lattice="16.28999089631971 0.0 0.0 0.0 16.28999089631971 0.0 0.0 0.0 34.56409401068381" Properties=species:S:1:pos:R:3:initial_magmoms:R:1 pbc="T T T"
Si       1.67573831      -1.04054004      -1.30731846       0.00000000
Si      -0.87164532       1.82168368      -1.29249045       0.00000000
Si      -1.62601893      -1.69513740      -0.69460042       0.00000000
Si       0.70920144       0.69398658       2.24635629       0.00000000
Si      -1.80674019      -1.25509563       2.80874898       0.00000000
Si       2.27644509       2.40852115       1.64507897       0.00000000
Si      -1.36645407       1.46135214       3.11550548       0.00000000
Si       1.90353604      -3.17291733      -0.22981679       0.00000000
Si      -1.82342115      -3.01246083       1.21143761       0.00000000
Si      -2.90611971       1.07098183      -2.47123041       0.00000000
