10
Lattice="16.28999089631971 0.0 0.0 0.0 16.28999089631971 0.0 0.0 0.0 34.56409401068381" Properties=species:S:1:pos:R:3:initial_magmoms:R:1 pbc="T T T"
Si       1.33327134       1.93899870       0.41480392       0.00000000
Si      -1.89082917       0.73984293      -1.38024874       0.00000000
Si       1.22106582      -1.33584516      -1.69637212       0.00000000
Si      -0.10459809      -0.12782763       2.52888335       0.00000000
Si       3.35432996      -0.23203476      -1.50879267       0.00000000
Si       1.46794077      -1.84591764       2.86926421       0.00000000
Si      -0.94635126       1.93991094      -3.21097156       0.00000000
Si       1.33196814      -3.56871546      -0.93962542       0.00000000
Si      -2.96359083      -1.19708694      -2.35450740       0.00000000
Si       3.29480141       2.08060767      -0.79144907       0.00000000
