10
Lattice="16.28999089631971 0.0 0.0 0.0 16.28999089631971 0.0 0.0 0.0 34.56409401068381" Properties=species:S:1:pos:R:3:initial_magmoms:R:1 pbc="T T T"
Si      -1.35672669      -1.35708732       1.35709078       0.00000000
Si       1.35971130      -1.35454608      -1.35788576       0.00000000
Si       1.35846674       1.35751086       1.35691796       0.00000000
Si      -1.35860004       1.35961227      -1.35508606       0.00000000
Si      -2.71259226       2.71446786       0.00038021       0.00000000
Si      -2.71345563      -0.00035838       2.71452720       0.00000000
Si       0.00178413       2.71445157       2.71476915       0.00000000
Si      -2.71459593      -2.71557558       0.00110605       0.00000000
Si       2.71553614       2.71513575       0.00010369       0.00000000
Si       0.00165851      -2.71585251       2.71490741       0.00000000
