10
Lattice="16.28999089631971 0.0 0.0 0.0 16.28999089631971 0.0 0.0 0.0 34.56409401068381" Properties=species:S:1:pos:R:3:initial_magmoms:R:1 pbc="T T T"
Si       1.20979314      -1.43793459      -1.38951192       0.00000000
Si      -1.53775319      -1.37261169       1.16256395       0.00000000
Si      -1.51764808       1.29021687      -1.35639950       0.00000000
Si       1.46772900       1.25470467       1.51981863       0.00000000
Si       2.54690892      -0.07596027      -2.73993183       0.00000000
Si       2.66100408      -2.63303415       0.02284688       0.00000000
Si      -0.23410359       2.57008959       2.77853994       0.00000000
Si      -0.16371450       2.63782341      -2.74152178       0.00000000
Si      -1.10806209       0.47053665       3.65321939       0.00000000
Si      -0.46322244      -2.90504457       2.48187616       0.00000000
