10
Lattice="16.28999089631971 0.0 0.0 0.0 16.28999089631971 0.0 0.0 0.0 34.56409401068381" Properties=species:S:1:pos:R:3:initial_magmoms:R:1 pbc="T T T"
Si       1.35630983       1.35013149       1.35658269       0.00000000
Si       1.30653085      -1.37067318      -1.39424720       0.00000000
Si      -1.35999947      -1.36094805       1.36010823       0.00000000
Si      -1.30402703       1.38473145      -1.42802325       0.00000000
Si      -0.69404798      -2.12009463      -2.41403821       0.00000000
Si      -2.26658684      -0.40200462      -2.75441907       0.00000000
Si       2.55842061       0.20282679      -2.58116054       0.00000000
Si      -2.70882776       2.69909825      -0.00968486       0.00000000
Si       0.00042730       2.70906824       2.71495234       0.00000000
Si       2.71413672      -0.00542457       2.71529798       0.00000000
