10
Lattice="16.28999089631971 0.0 0.0 0.0 16.28999089631971 0.0 0.0 0.0 34.56409401068381" Properties=species:S:1:pos:R:3:initial_magmoms:R:1 pbc="T T T"
Si       1.21810104       1.95095556      -0.43789275       0.00000000
Si      -2.01584189       0.81793719       0.86666058       0.00000000
Si       1.50174252      -1.10762226       1.45836363       0.00000000
Si       0.15872976      -0.98026704      -2.22229967       0.00000000
Si       3.05962038      -1.39128003      -0.27468101       0.00000000
Si       3.29440815       0.95205276      -0.92289639       0.00000000
Si       0.40257477       2.80227652      -2.48453759       0.00000000
Si      -3.01797404       2.16999090      -0.85833063       0.00000000
Si       2.07671436      -2.45167758      -2.11352640       0.00000000
Si       0.41003559      -2.87686287       2.54395330       0.00000000
