10
Lattice="16.290000149 0.0 0.0 0.0 16.290000149 0.0 0.0 0.0 29.1751946751" Properties=species:S:1:pos:R:3:initial_magmoms:R:1 pbc="T T T"
Si      -1.33519357      -1.36376135       1.36957116       0.00000000
Si       1.35011521      -1.34975195      -1.37324724       0.00000000
Si       1.36070371       1.34599384       1.36714962       0.00000000
Si      -1.36884871       1.34446258      -1.36414458       0.00000000
Si      -2.69685839      -2.70655094      -0.00825658       0.00000000
Si       2.71443530       2.69329088      -0.00711875       0.00000000
Si      -0.00941562       2.73326654       2.67775772       0.00000000
Si       2.72494235      -2.69633711      -0.03702332       0.00000000
Si      -2.76078036      -0.00179190       2.66839248       0.00000000
Si      -0.01894527       2.70922250      -2.72076195       0.00000000
