10
Lattice="16.290000149 0.0 0.0 0.0 16.290000149 0.0 0.0 0.0 29.1751946751" Properties=species:S:1:pos:R:3:initial_magmoms:R:1 pbc="T T T"
Si      -1.34436484      -1.37922544       1.31151253       0.00000000
Si       1.30328146      -1.34641738      -1.43183103       0.00000000
Si       1.23255028       1.43235691       1.42587929       0.00000000
Si      -1.40175451       1.34124205      -1.35900974       0.00000000
Si       0.20012265      -2.70234812       2.49943893       0.00000000
Si       2.64316655       2.71764443       0.04478392       0.00000000
Si      -2.70989039      -0.01141929       2.65508859       0.00000000
Si      -0.28683432       2.75182086       2.61996166       0.00000000
Si       2.65838141       0.00866628      -2.76560423       0.00000000
Si      -0.06656094       2.70500339      -2.72858091       0.00000000
