10
Lattice="16.290000149 0.0 0.0 0.0 16.290000149 0.0 0.0 0.0 29.1751946751" Properties=species:S:1:pos:R:3:initial_magmoms:R:1 pbc="T T T"
Si      -1.36243045       1.36976095       1.26185634       0.00000000
Si      -1.41988528      -1.30989520      -1.31396324       0.00000000
Si       1.33783255       1.44738280      -1.25605048       0.00000000
Si       1.29666772      -1.30308598       1.46106457       0.00000000
Si      -2.77723326       0.04377123       2.50116026       0.00000000
Si       2.68179014       0.08234595      -2.60715375       0.00000000
Si      -0.04082274      -2.65686644      -2.63536616       0.00000000
Si       2.68021001      -2.64701099       0.12536581       0.00000000
Si      -0.04926096       2.79000462      -2.60321510       0.00000000
Si      -2.78174559       0.08434962      -2.61908640       0.00000000
