10
Lattice="16.290000149 0.0 0.0 0.0 16.290000149 0.0 0.0 0.0 29.1751946751" Properties=species:S:1:pos:R:3:initial_magmoms:R:1 pbc="T T T"
Si      -0.44012322       0.24913926      -2.28329567       0.00000000
Si       0.80984107       1.85911256       1.18194432       0.00000000
Si      -1.87401791      -0.80291782       1.19568584       0.00000000
Si       1.63302364      -1.73565065       0.08421887       0.00000000
Si       2.18483111       0.59497597       2.59969832       0.00000000
Si      -0.67072447      -2.19936179       2.63790615       0.00000000
Si      -2.15827841       1.87984973      -2.17715631       0.00000000
Si      -0.48809727      -2.04486743      -2.95134927       0.00000000
Si       1.71545105      -2.42774759      -2.14585132       0.00000000
Si       0.64521433      -3.52266855       1.23784691       0.00000000
