10
Lattice="16.290000149 0.0 0.0 0.0 16.290000149 0.0 0.0 0.0 29.1751946751" Properties=species:S:1:pos:R:3:initial_magmoms:R:1 pbc="T T T"
Si      -1.33178896       1.36627815      -1.37231363       0.00000000
Si       1.37066993       1.37204155       1.33012630       0.00000000
Si       1.36967136      -1.33985251      -1.38036599       0.00000000
Si      -1.37878561      -1.32678793       1.38949782       0.00000000
Si      -2.63635733      -2.69487101      -0.06593594       0.00000000
Si       0.06004036      -2.67584429       2.67653236       0.00000000
Si      -0.02480967       2.70982523       2.67845792       0.00000000
Si      -2.70234812       2.70632288      -0.00671029       0.00000000
Si      -2.66370824       0.01125639      -2.75548044       0.00000000
Si       2.77594635       0.03385062       2.66387032       0.00000000
