10
Lattice="16.290000149 0.0 0.0 0.0 16.290000149 0.0 0.0 0.0 29.1751946751" Properties=species:S:1:pos:R:3:initial_magmoms:R:1 pbc="T T T"
Si      -2.29749275      -0.08062573       0.32740403       0.00000000
H       -0.88309720       1.58358349      -1.52700051       0.00000000
Si       0.96122404      -0.40530661      -2.15129133       0.00000000
Si       0.99494434       2.16085223       0.40296779       0.00000000
Si       0.02894733      -2.06544170       1.29759596       0.00000000
H       -2.89124697       1.21697704      -0.15634987       0.00000000
Si       2.81496090       1.27149967       1.55223706       0.00000000
Si       2.87454972      -1.46082042      -1.36204396       0.00000000
Si       3.50200794      -0.77935759       0.78615480       0.00000000
Si      -1.05026518      -1.37207576       3.34254370       0.00000000
