10
Lattice="16.290000149 0.0 0.0 0.0 16.290000149 0.0 0.0 0.0 29.1751946751" Properties=species:S:1:pos:R:3:initial_magmoms:R:1 pbc="T T T"
Si      -1.34130232       1.35581671       1.34330007       0.00000000
Si       1.39867570      -1.42498405       1.22451210       0.00000000
Si       1.39486384       1.23127966      -1.42649197       0.00000000
Si      -1.50570100      -1.28348911      -1.28531320       0.00000000
H        0.51183180       2.08339328      -2.31516840       0.00000000
Si       2.70731657       0.02145393       2.59455881       0.00000000
Si      -2.55705761       2.77040775      -0.10730637       0.00000000
Si      -2.66206295      -0.04748535       2.68660655       0.00000000
Si       2.42603714      -0.25515027      -2.89817631       0.00000000
Si       0.07258824      -2.80751637       2.60071478       0.00000000
