10
Lattice="16.290000149 0.0 0.0 0.0 16.290000149 0.0 0.0 0.0 29.1751946751" Properties=species:S:1:pos:R:3:initial_magmoms:R:1 pbc="T T T"
Si      -1.30476385       1.38031687      -1.37488105       0.00000000
Si       1.38054005       1.36041049       1.33485268       0.00000000
Si       1.39547960      -1.33778368      -1.34833162       0.00000000
Si      -1.38305359      -1.33818116       1.38089114       0.00000000
Si       0.08332923      -2.63281931       2.65453426       0.00000000
Si      -2.67753845      -0.00350235      -2.68516822       0.00000000
Si      -2.62764218       2.75123442      -0.00055433       0.00000000
Si       0.02480967      -2.70982523      -2.67845792       0.00000000
Si      -2.61224813       0.09356976       2.79784282       0.00000000
Si       2.72758133       0.02554272       2.71405166       0.00000000
