10
Lattice="16.290000149 0.0 0.0 0.0 16.290000149 0.0 0.0 0.0 29.1751946751" Properties=species:S:1:pos:R:3:initial_magmoms:R:1 pbc="T T T"
Si       1.02581389      -1.13274797      -0.02546995       0.00000000
Si      -0.36807255       2.54239661       0.88520458       0.00000000
Si      -1.90278605       1.82350262      -0.72774606       0.00000000
H        1.16230780       2.16220430      -1.72626709       0.00000000
Si      -0.28408131       1.07618257       2.81123423       0.00000000
Si      -1.85407895      -0.61003118       2.35957304       0.00000000
Si       2.89163956      -0.24735225       1.10422277       0.00000000
Si      -1.27102726       0.74714086      -2.77076824       0.00000000
Si       1.30616479      -1.88185340      -2.22968508       0.00000000
Si       0.18940383      -3.06392097       0.99172322       0.00000000
