10
Lattice="16.290000149 0.0 0.0 0.0 16.290000149 0.0 0.0 0.0 29.1751946751" Properties=species:S:1:pos:R:3:initial_magmoms:R:1 pbc="T T T"
Si       1.39417966       1.43472547      -1.17683983       0.00000000
Si       1.69803704      -1.59943366       0.01881800       0.00000000
Si      -0.95602753       1.26957745       1.75447951       0.00000000
Si      -1.59413941      -0.81334342      -1.56081456       0.00000000
Si      -2.07171335       1.21609738      -2.61975743       0.00000000
Si      -0.17342334       2.71534754      -2.30075585       0.00000000
Si       0.62993431      -3.35909577      -1.04855650       0.00000000
Si      -2.40723848       2.68698665       0.53708616       0.00000000
Si      -0.30247272      -2.31761090      -2.88142975       0.00000000
Si       2.35563176      -2.02356011       2.14866556       0.00000000
