10
Lattice="16.290000149 0.0 0.0 0.0 16.290000149 0.0 0.0 0.0 29.1751946751" Properties=species:S:1:pos:R:3:initial_magmoms:R:1 pbc="T T T"
Si       1.71815519      -1.63071046      -0.10613936       0.00000000
Si      -2.05671026      -1.01252125      -0.72468266       0.00000000
Si       1.39531996       1.73872946      -0.91461318       0.00000000
Si      -1.00597267       1.23916402       1.84317210       0.00000000
H        0.78902245      -1.46945575      -2.63959656       0.00000000
H       -0.61028857       0.57238174      -3.09070342       0.00000000
Si      -2.36154666       2.64684809       0.52897545       0.00000000
Si       2.15827841      -1.87984973       2.17715631       0.00000000
Si      -3.46865091       0.93866239      -0.72016051       0.00000000
Si       3.58782366      -0.73378306      -1.38118289       0.00000000
