10
Lattice="16.290000149 0.0 0.0 0.0 16.290000149 0.0 0.0 0.0 29.1751946751" Properties=species:S:1:pos:R:3:initial_magmoms:R:1 pbc="T T T"
Si      -0.75908143      -1.49796162       1.72466246       0.00000000
Si       1.07921251      -0.69336594      -2.04494775       0.00000000
Si       0.93519262       2.06741442       0.83569428       0.00000000
Si      -2.18685107       0.75870187      -0.88219954       0.00000000
H       -1.34980570       2.23129182       1.78012450       0.00000000
Si      -1.24722757       1.29145003      -3.01513967       0.00000000
Si      -2.64109772       2.23106376       0.97891531       0.00000000
H        0.43455204      -3.61751870      -0.50983653       0.00000000
Si      -2.28371141      -2.83592450       0.54960232       0.00000000
Si      -3.33169436      -1.33048413      -0.93229335       0.00000000
