10
Lattice="16.290000149 0.0 0.0 0.0 16.290000149 0.0 0.0 0.0 29.1751946751" Properties=species:S:1:pos:R:3:initial_magmoms:R:1 pbc="T T T"
Si       1.43337340      -1.22565961      -1.28519650       0.00000000
Si      -1.22306950       1.53301933      -1.24239649       0.00000000
Si       1.48558285       1.01362897       1.47045899       0.00000000
Si      -1.12269052      -1.43871652       1.55077830       0.00000000
H        2.07759404      -2.06868341      -0.20664790       0.00000000
Si      -1.99640468       0.34114518       2.83822129       0.00000000
Si      -0.12328272       1.80247223       2.99462951       0.00000000
Si       2.46506798      -0.84584197       2.36564148       0.00000000
Si      -0.00211770      -2.55559151      -2.50048923       0.00000000
Si       0.69732604      -2.32806908       2.70004757       0.00000000
