10
Lattice="16.290000149 0.0 0.0 0.0 16.290000149 0.0 0.0 0.0 29.1751946751" Properties=species:S:1:pos:R:3:initial_magmoms:R:1 pbc="T T T"
Si       0.85097332      -1.87988231      -1.10746121       0.00000000
Si       1.48965535       1.24354603       1.38179557       0.00000000
Si      -1.39121488       1.32326929      -1.43559463       0.00000000
Si      -1.30618108      -1.37189494       1.49018142       0.00000000
H        1.38688174      -1.62797374      -2.49395399       0.00000000
H        2.65328264       0.13307301      -2.06668327       0.00000000
Si       0.00975771       2.54207326       2.72330020       0.00000000
Si      -2.79401196       2.48717351       0.05263205       0.00000000
H       -0.19758141      -0.79628779      -3.67009361       0.00000000
Si       2.54101196      -2.81035083       0.20378873       0.00000000
