10
Lattice="16.290000149 0.0 0.0 0.0 16.290000149 0.0 0.0 0.0 29.1751946751" Properties=species:S:1:pos:R:3:initial_magmoms:R:1 pbc="T T T"
Si      -0.56255887       1.03648384       2.00952906       0.00000000
Si      -1.62043147      -1.68744854      -0.07340479       0.00000000
Si       2.19421415      -0.72272215      -0.46878703       0.00000000
Si       0.05082480       2.14300002      -0.98399179       0.00000000
Si       0.67828303       2.82446285       1.16420697       0.00000000
Si       1.90620695       0.16303032      -2.71014218       0.00000000
Si       1.92448433      -2.75271681       0.72768771       0.00000000
Si      -3.44396667      -0.23242572       0.08764228       0.00000000
Si      -0.22125078      -0.80637130      -3.39077030       0.00000000
Si      -2.79477759       1.53837874       1.67564813       0.00000000
