10
Lattice="16.290000149 0.0 0.0 0.0 16.290000149 0.0 0.0 0.0 29.1751946751" Properties=species:S:1:pos:R:3:initial_magmoms:R:1 pbc="T T T"
Si      -2.20431884      -0.16698879      -0.63779893       0.00000000
Si       1.31824708      -0.24879717      -1.91085855       0.00000000
Si       0.51943435       0.90815122       2.09434135       0.00000000
Si       0.79929655      -2.25562745      -0.17648075       0.00000000
Si       0.77513848       2.12569841      -1.17103396       0.00000000
H       -2.29643879      -1.24260121      -1.69837561       0.00000000
H        2.09058857      -2.25539939       0.62472844       0.00000000
H        1.96585604       2.49305420      -0.27167941       0.00000000
H        3.36516705       0.45121671       0.17942745       0.00000000
Si      -2.64136325       1.96299389      -1.54290100       0.00000000
