10
Lattice="16.290000149 0.0 0.0 0.0 16.290000149 0.0 0.0 0.0 29.1751946751" Properties=species:S:1:pos:R:3:initial_magmoms:R:1 pbc="T T T"
Si      -1.35509995      -1.35508366       1.33377320       0.00000000
Si      -1.37482714       1.34658517      -1.33622392       0.00000000
Si       1.30732138       1.31412246       1.44583512       0.00000000
Si       1.35275419      -1.38512242      -1.33718670       0.00000000
Si       0.03958470      -2.80536609       2.52788474       0.00000000
Si       2.67385691       2.67344966       0.06920356       0.00000000
Si      -0.01032786       2.69407280      -2.68648110       0.00000000
Si       2.71249679      -0.02161683      -2.67956658       0.00000000
Si      -2.72474687      -0.02339244      -2.68750223       0.00000000
Si      -2.72494235       2.69633711       0.03702332       0.00000000
