10
Lattice="16.290000149 0.0 0.0 0.0 16.290000149 0.0 0.0 0.0 29.1751946751" Properties=species:S:1:pos:R:3:initial_magmoms:R:1 pbc="T T T"
Si      -1.30732138      -1.31412246      -1.44583512       0.00000000
Si      -1.32253624       1.39485570       1.36455303       0.00000000
Si       1.26027586      -1.39154883       1.43162680       0.00000000
Si       1.36653553       1.35932721      -1.37663156       0.00000000
Si      -2.66242133      -2.66920612      -0.11206192       0.00000000
Si       2.66102039       0.02464840       2.68942780       0.00000000
Si       2.69009804      -2.67378361       0.01957656       0.00000000
Si      -2.67156002       2.72820850      -0.04166218       0.00000000
Si       0.07649784       2.76526825       2.68032513       0.00000000
Si      -2.68214852       0.03246271      -2.78205904       0.00000000
