10
Lattice="16.290000149 0.0 0.0 0.0 16.290000149 0.0 0.0 0.0 29.1751946751" Properties=species:S:1:pos:R:3:initial_magmoms:R:1 pbc="T T T"
Si      -0.64422064       0.84302380      -1.07854860       0.00000000
Si       2.14856957       0.25109406       1.31317551       0.00000000
Si       2.25921125      -1.47905056      -0.49268151       0.00000000
Si       0.38747394       1.22284144       2.57228939       0.00000000
Si      -2.07759404       2.06868341       0.20664790       0.00000000
Si       0.42502239      -2.66571843      -1.50033439       0.00000000
Si      -2.07971174      -0.48690810      -2.29384133       0.00000000
Si      -0.69322096      -2.31024293       2.14061321       0.00000000
Si      -1.38026800      -0.25938567       2.90669547       0.00000000
Si       0.85745674       2.20333655      -2.23995475       0.00000000
