10
Lattice="16.290000149 0.0 0.0 0.0 16.290000149 0.0 0.0 0.0 29.1751946751" Properties=species:S:1:pos:R:3:initial_magmoms:R:1 pbc="T T T"
Si      -1.36994666       1.23857758      -1.44528079       0.00000000
Si       1.19711953      -1.39654171      -1.48102041       0.00000000
Si      -1.36123965      -1.43053894       1.30395615       0.00000000
Si       1.43663140       1.40748859       1.31591798       0.00000000
Si      -0.06923250       2.73759969       2.56435374       0.00000000
Si       2.55306656      -2.75102265      -0.17931075       0.00000000
Si       0.07201809      -2.64445346       2.68767728       0.00000000
Si      -2.77524588       2.55650375      -0.13333064       0.00000000
Si       2.73833273       2.64648971      -0.18260754       0.00000000
Si      -0.03823263       2.63575460      -2.78809830       0.00000000
