10
Lattice="16.290000149 0.0 0.0 0.0 16.290000149 0.0 0.0 0.0 29.1751946751" Properties=species:S:1:pos:R:3:initial_magmoms:R:1 pbc="T T T"
Si      -1.35534430      -1.34390872       1.37581466       0.00000000
Si       1.33477003       1.35140212       1.39419503       0.00000000
Si      -1.37643985       1.34729704      -1.35941820       0.00000000
Si       1.36277254      -1.37358910      -1.34981956       0.00000000
Si       2.71443530      -2.69244380       0.05811699       0.00000000
Si       2.69873174       2.71295291       0.06471058       0.00000000
Si      -2.71524980      -2.69865029       0.02223150       0.00000000
Si      -0.02278971       2.74497906      -2.67952573       0.00000000
Si       2.72981306      -0.02326212      -2.70040642       0.00000000
Si      -2.72824922       2.71658558      -0.00067103       0.00000000
