10
Lattice="16.290000149 0.0 0.0 0.0 16.290000149 0.0 0.0 0.0 29.1751946751" Properties=species:S:1:pos:R:3:initial_magmoms:R:1 pbc="T T T"
Si      -1.56760300       1.28062207      -1.12391602       0.00000000
Si      -1.39417966      -1.43472547       1.17683983       0.00000000
Si       1.56493144       1.12251133       1.46757064       0.00000000
Si       1.07018785      -1.11048931      -1.86741669       0.00000000
Si       2.08885043      -2.44268552      -0.24259174       0.00000000
Si       0.30385737      -3.03415914       1.19565783       0.00000000
Si       0.05176962       2.30873285      -2.51685652       0.00000000
Si       1.83119150       0.76246975      -3.14829526       0.00000000
Si      -2.53874765       2.73676889       0.38683391       0.00000000
Si      -2.98831908      -2.24806889      -0.38397474       0.00000000
