10
Lattice="16.290000149 0.0 0.0 0.0 16.290000149 0.0 0.0 0.0 29.1751946751" Properties=species:S:1:pos:R:3:initial_magmoms:R:1 pbc="T T T"
Si      -1.19071756      -0.36735579      -0.89935455       0.00000000
H        1.39931101      -2.04183749       0.45110686       0.00000000
Si      -0.33785460       1.11151558      -2.53643307       0.00000000
Si       0.08548992       2.92244232      -1.05001526       0.00000000
Si       2.00560853       1.16634772       2.17609025       0.00000000
Si      -1.96585604      -2.49305420       0.27167941       0.00000000
Si      -1.44642169      -1.58490298       2.36602076       0.00000000
Si       0.61028857      -0.57238174       3.09070342       0.00000000
Si      -0.64760896      -2.74185138      -1.63917914       0.00000000
H        3.12100113       0.62819128      -0.74927735       0.00000000
