10
Lattice="16.290000149 0.0 0.0 0.0 16.290000149 0.0 0.0 0.0 29.1751946751" Properties=species:S:1:pos:R:3:initial_magmoms:R:1 pbc="T T T"
H       -0.65018278       0.42378435      -0.04169135       0.00000000
Si       1.98189029       0.62302735       1.08333333       0.00000000
H       -1.79980067      -1.20588355       1.08476291       0.00000000
Si       0.75210931      -0.55214956      -2.49958480       0.00000000
Si       0.20246841       2.16929045       1.71477207       0.00000000
Si      -2.51657696      -1.28697517      -0.24130804       0.00000000
Si      -0.90771139      -2.07581843      -1.76547856       0.00000000
Si       2.61193862       0.29227518      -1.24688947       0.00000000
Si       1.22088664      -1.24993171       2.36421190       0.00000000
Si      -0.73423918       1.24809094      -2.61657733       0.00000000
