10
Lattice="16.290000149 0.0 0.0 0.0 16.290000149 0.0 0.0 0.0 29.1751946751" Properties=species:S:1:pos:R:3:initial_magmoms:R:1 pbc="T T T"
Si       1.57851730      -1.08553303       1.32256992       0.00000000
Si      -1.22971582      -1.13801941      -1.62537927       0.00000000
Si      -1.60010155      -0.07426611       1.79240726       0.00000000
Si       1.29829672       1.58992030      -1.27580209       0.00000000
H        0.93266767      -1.91335826       2.39869698       0.00000000
H       -0.50570676      -2.82395298       1.85034920       0.00000000
Si      -1.70978213       2.23169092       2.02580882       0.00000000
Si      -2.64451862      -2.46400913      -0.38607535       0.00000000
Si       2.81668764      -2.45125406      -0.09589886       0.00000000
Si       0.13271463      -2.50778036      -2.88723562       0.00000000
