10
Lattice="16.290000149 0.0 0.0 0.0 16.290000149 0.0 0.0 0.0 29.1751946751" Properties=species:S:1:pos:R:3:initial_magmoms:R:1 pbc="T T T"
Si       1.33033915      -1.41973867      -1.28595506       0.00000000
Si      -1.34840476      -1.37362820       1.33756598       0.00000000
Si       1.38575773       1.35018037       1.32496229       0.00000000
Si      -1.30046329       1.34928442      -1.41876054       0.00000000
Si       2.66352905      -0.07967439      -2.61496103       0.00000000
Si       0.01485648       2.69597873       2.66363692       0.00000000
Si      -2.67819005       2.69827562      -0.06818243       0.00000000
Si      -2.70837542      -0.01619226       2.67702834       0.00000000
Si      -2.72894970      -0.05432715      -2.66192726       0.00000000
Si       0.03399723      -2.73297333       2.65987332       0.00000000
