10
Lattice="16.290000149 0.0 0.0 0.0 16.290000149 0.0 0.0 0.0 29.1751946751" Properties=species:S:1:pos:R:3:initial_magmoms:R:1 pbc="T T T"
Si       1.37847610       1.36397800       1.30497728       0.00000000
Si      -1.31722570       1.39136149      -1.34170885       0.00000000
Si       1.32727663      -1.35897697      -1.36633272       0.00000000
Si      -1.37057545      -1.35830908       1.33806195       0.00000000
Si      -2.62972730       0.03152115      -2.68703543       0.00000000
Si      -0.00664632       2.67854843       2.66337435       0.00000000
Si       2.73862596       0.04520475      -2.62411912       0.00000000
Si       2.70770753      -0.00265527       2.68099616       0.00000000
Si      -0.09280413      -2.78816385      -2.60186137       0.00000000
Si      -0.00791694      -2.72399753       2.67399412       0.00000000
