10
Lattice="16.290000149 0.0 0.0 0.0 16.290000149 0.0 0.0 0.0 29.1751946751" Properties=species:S:1:pos:R:3:initial_magmoms:R:1 pbc="T T T"
H        0.64422064      -0.84302380       1.07854860       0.00000000
Si      -1.43337340       1.22565961       1.28519650       0.00000000
Si      -1.43549110      -1.32993190      -1.21529273       0.00000000
Si       1.50167737       1.36031275      -1.16140615       0.00000000
Si       0.05220945       2.23928858       2.75565549       0.00000000
Si       0.08389350      -2.64939585      -2.40937510       0.00000000
Si       1.06924303      -3.50874223      -0.42178579       0.00000000
Si       0.15853428       2.70646949      -2.54492306       0.00000000
Si       2.79279021      -0.59192974       2.39172411       0.00000000
Si      -2.68247432       0.05908383      -2.58358019       0.00000000
