10
Lattice="16.290000149 0.0 0.0 0.0 16.290000149 0.0 0.0 0.0 29.1751946751" Properties=species:S:1:pos:R:3:initial_magmoms:R:1 pbc="T T T"
Si       1.36418489       1.33025770       1.37902393       0.00000000
Si       1.35456238      -1.38862477      -1.33012630       0.00000000
Si      -1.34092765      -1.35291709       1.38550082       0.00000000
Si      -1.34840476       1.38455227      -1.36192726       0.00000000
Si      -2.69211800       2.68819211       0.06173471       0.00000000
Si       2.71103069       2.67792941       0.01053225       0.00000000
Si      -2.69708645      -2.70246215       0.03063395       0.00000000
Si       2.70062138      -0.05968656      -2.71122167       0.00000000
Si      -2.69519681       0.05209542      -2.75134048       0.00000000
Si       0.03377142       2.67955841       2.77038896       0.00000000
