10
Lattice="16.290000149 0.0 0.0 0.0 16.290000149 0.0 0.0 0.0 29.1751946751" Properties=species:S:1:pos:R:3:initial_magmoms:R:1 pbc="T T T"
Si      -1.38240199       1.35934513      -1.32230735       0.00000000
Si      -1.37714032      -1.35532801       1.33219774       0.00000000
Si       1.34991973       1.36997761       1.35127832       0.00000000
Si       1.35060391      -1.37666791      -1.34871090       0.00000000
Si      -0.00736308      -2.69746112       2.68493482       0.00000000
Si      -0.03399723       2.73297333      -2.65987332       0.00000000
Si      -2.73787661      -0.01233153      -2.66066105       0.00000000
Si       2.72474687       0.02339244       2.68750223       0.00000000
Si      -2.69705387       0.01317861       2.71626897       0.00000000
Si       2.73025290      -0.03305241      -2.68385533       0.00000000
