10
Lattice="16.290000149 0.0 0.0 0.0 16.290000149 0.0 0.0 0.0 29.1751946751" Properties=species:S:1:pos:R:3:initial_magmoms:R:1 pbc="T T T"
Si       1.72633277       0.94066606       1.27464879       0.00000000
Si      -0.86473837      -1.72777769       1.38260285       0.00000000
Si       0.72852139      -0.63675982      -2.17929747       0.00000000
Si      -1.70491142       1.66853585       0.12889805       0.00000000
H       -2.91413442      -0.95047264      -0.67654155       0.00000000
Si       0.46895652       2.34134543       2.64037175       0.00000000
Si      -2.36247356      -0.49202316       2.66262950       0.00000000
Si      -0.84147625      -2.32297357      -2.63095866       0.00000000
Si       2.97230601      -1.14359059      -1.89122160       0.00000000
Si      -2.36250614       2.09266229      -2.00094951       0.00000000
