10
Lattice="16.290000149 0.0 0.0 0.0 16.290000149 0.0 0.0 0.0 29.1751946751" Properties=species:S:1:pos:R:3:initial_magmoms:R:1 pbc="T T T"
Si       1.32219415       1.32497974      -1.36575826       0.00000000
Si      -1.25737624       1.40067937       1.36572296       0.00000000
Si      -1.72633277      -0.94066606      -1.27464879       0.00000000
Si       1.45049602      -1.38438937       1.22714078       0.00000000
Si      -3.43124418       0.72786979      -1.14575074       0.00000000
Si      -2.57267972       2.66453903      -0.10645445       0.00000000
Si      -2.59107113      -2.66844375       0.10795406       0.00000000
Si       2.58446391      -0.10456551      -2.69209441       0.00000000
Si      -2.66872556      -0.00350235       2.62350936       0.00000000
Si       2.81268844       0.01060479       2.54584499       0.00000000
