10
Lattice="16.290000149 0.0 0.0 0.0 16.290000149 0.0 0.0 0.0 29.1751946751" Properties=species:S:1:pos:R:3:initial_magmoms:R:1 pbc="T T T"
Si       1.25636952      -0.57388693       0.72214442       0.00000000
Si       2.19599302      -0.04113877      -1.41079571       0.00000000
Si       0.11152623      -2.66307293       0.67205061       0.00000000
H        1.60223880       1.25646400      -1.89454962       0.00000000
Si      -1.28870550       1.03586482      -2.30104760       0.00000000
Si       0.80212287       0.89847496       2.58325926       0.00000000
Si      -2.72588392      -0.38493596      -0.95236588       0.00000000
Si       0.02740793       2.74300796      -1.17403901       0.00000000
Si      -2.14975548      -2.13255650       0.55794642       0.00000000
H       -2.29361247       1.91150120       1.06136441       0.00000000
