10
Lattice="16.290000149 0.0 0.0 0.0 16.290000149 0.0 0.0 0.0 29.1751946751" Properties=species:S:1:pos:R:3:initial_magmoms:R:1 pbc="T T T"
Si      -1.23152401       1.20321069       1.59422892       0.00000000
Si      -1.94124674      -0.85048462      -1.06437645       0.00000000
Si       1.30230406      -1.52922376       1.31627100       0.00000000
Si       1.48012082       1.30442730      -1.37027137       0.00000000
H       -0.86077990      -2.56277540      -1.85338342       0.00000000
Si      -2.64823274       2.54570837       0.33877069       0.00000000
Si       2.65179211      -0.28588950      -2.65891054       0.00000000
Si       2.82696825       2.52250164       0.10707880       0.00000000
Si      -3.68732298       0.69260194      -0.61477387       0.00000000
Si       2.69260019      -0.24127119       2.75043313       0.00000000
