10
Lattice="16.290000149 0.0 0.0 0.0 16.290000149 0.0 0.0 0.0 29.1751946751" Properties=species:S:1:pos:R:3:initial_magmoms:R:1 pbc="T T T"
Si       1.81121996       1.32479404       0.60637725       0.00000000
Si      -0.72539371      -0.34422074       2.26393676       0.00000000
Si      -1.22355820       1.87187740      -0.95087794       0.00000000
Si       1.61904682      -1.53090815      -1.07475582       0.00000000
H        0.72620821      -2.51852199       0.99364878       0.00000000
H       -1.17905392      -2.94198054      -0.24696802       0.00000000
Si      -0.26704197      -2.87266659      -1.46091870       0.00000000
Si       0.48317769       2.87400563       1.76495340       0.00000000
Si      -1.45499023       1.84594372       2.66518321       0.00000000
Si      -1.15303879      -1.44908348      -3.05160866       0.00000000
