10
Lattice="16.290000149 0.0 0.0 0.0 16.290000149 0.0 0.0 0.0 29.1751946751" Properties=species:S:1:pos:R:3:initial_magmoms:R:1 pbc="T T T"
Si       1.36841113      -1.35677782       1.34095030       0.00000000
Si       1.39843657       1.33478632      -1.33470681       0.00000000
Si      -1.35078310       1.36076887       1.36017675       0.00000000
Si      -1.35747829      -1.34814412      -1.36770395       0.00000000
Si       0.08177580       2.77023996      -2.61071312       0.00000000
Si       2.69882460      -2.70607853      -0.05041474       0.00000000
Si       0.02052540      -2.71039538       2.69861798       0.00000000
Si      -2.71052570      -0.00273672       2.70255663       0.00000000
Si       2.68259650       0.00965997       2.73529120       0.00000000
Si      -2.71085150       2.71386841       0.00758555       0.00000000
