10
Lattice="16.290000149 0.0 0.0 0.0 16.290000149 0.0 0.0 0.0 29.1751946751" Properties=species:S:1:pos:R:3:initial_magmoms:R:1 pbc="T T T"
Si      -1.31666076       1.43545364      -1.27600631       0.00000000
Si       1.31420032       1.38391696       1.36379447       0.00000000
Si      -1.39843657      -1.33478632       1.33470681       0.00000000
Si       1.28163661      -1.34522821      -1.45625067       0.00000000
Si      -2.64248759       0.09925367      -2.61245488       0.00000000
Si       2.64723384      -2.69319314      -0.08419961       0.00000000
Si      -0.03002543      -2.69156414       2.67565710       0.00000000
Si       2.66002149       0.02301777       2.71941990       0.00000000
Si       2.69423049       0.04525362      -2.71218445       0.00000000
Si       2.63863272       2.76767103       0.00192556       0.00000000
