10
Lattice="16.290000149 0.0 0.0 0.0 16.290000149 0.0 0.0 0.0 29.1751946751" Properties=species:S:1:pos:R:3:initial_magmoms:R:1 pbc="T T T"
Si      -0.37033686      -0.64767412      -2.22501705       0.00000000
Si      -1.98806420      -0.60416353       1.17231767       0.00000000
Si       0.77877604       2.03768354       1.00949091       0.00000000
Si       1.48476835      -1.86808835       0.35523717       0.00000000
H       -2.24191127       2.08173170      -0.26995808       0.00000000
Si       1.79743862       0.70548733       2.63431585       0.00000000
H        2.75949345       1.95587516      -0.05047309       0.00000000
Si      -2.13807881      -2.12990123      -1.89061097       0.00000000
H       -0.44211060       3.28761525      -1.35472099       0.00000000
Si      -1.05565717      -1.64564839       3.00519093       0.00000000
