10
Lattice="16.290000149 0.0 0.0 0.0 16.290000149 0.0 0.0 0.0 29.1751946751" Properties=species:S:1:pos:R:3:initial_magmoms:R:1 pbc="T T T"
Si       1.25920072      -0.24641883      -1.93799148       0.00000000
Si      -0.34184565       2.11919870       0.93453984       0.00000000
Si       1.22438899      -1.32157513       1.51527209       0.00000000
Si      -2.06073389      -0.69538753      -0.90241795       0.00000000
H        2.57157200      -0.70690456      -1.33339392       0.00000000
H       -2.52025850       0.28883799       1.72121979       0.00000000
H        0.37173780      -3.06708123      -0.24119133       0.00000000
H       -1.25385760       2.04988475       2.14849051       0.00000000
H       -3.18985896      -0.63848656       0.10415544       0.00000000
Si       0.28768140      -2.24277464      -2.81607732       0.00000000
