10
Lattice="16.290000149 0.0 0.0 0.0 16.290000149 0.0 0.0 0.0 29.1751946751" Properties=species:S:1:pos:R:3:initial_magmoms:R:1 pbc="T T T"
Si      -1.23817033       1.36572103       1.41846879       0.00000000
Si       1.32190093      -1.37678194       1.33216856       0.00000000
Si       1.35025724       1.40988322      -1.30491893       0.00000000
Si      -1.38730528      -1.35961228      -1.33027218       0.00000000
H       -1.88401997       0.53789580       2.49459585       0.00000000
Si       2.61184903       0.02912652       2.65147087       0.00000000
Si      -2.81668764       2.45125406       0.09589886       0.00000000
Si      -0.08856873       2.75893959      -2.59195347       0.00000000
Si       2.68860588       0.04662198      -2.67784524       0.00000000
Si      -0.00376299      -2.70353729      -2.66597094       0.00000000
