10
Lattice="16.290000149 0.0 0.0 0.0 16.290000149 0.0 0.0 0.0 29.1751946751" Properties=species:S:1:pos:R:3:initial_magmoms:R:1 pbc="T T T"
Si       1.32019863      -1.33555195      -1.40776149       0.00000000
Si       1.39143643       1.37551132       1.31104572       0.00000000
Si      -1.33952671       1.36668214      -1.37514363       0.00000000
Si      -1.35376417      -1.34687350       1.39579966       0.00000000
Si      -0.01386279       2.69343749       2.62299588       0.00000000
Si       2.64950336      -2.69475698      -0.04271249       0.00000000
Si      -2.69799869      -2.67299354      -0.01272038       0.00000000
Si      -2.72306900       2.71060715      -0.03944486       0.00000000
Si       2.67113648       0.02977812      -2.77170184       0.00000000
Si       0.04045703      -2.70177797       2.74664035       0.00000000
