10
Lattice="16.290000149 0.0 0.0 0.0 16.290000149 0.0 0.0 0.0 29.1751946751" Properties=species:S:1:pos:R:3:initial_magmoms:R:1 pbc="T T T"
Si      -1.34544650      -1.32875902       1.38178390       0.00000000
Si       1.36270738       1.36765954       1.36317013       0.00000000
Si      -1.38529673       1.33968961      -1.37231655       0.00000000
Si       1.38421018      -1.37122705      -1.35108868       0.00000000
Si       2.68340285       0.11323179      -2.62473355       0.00000000
Si      -2.67680540      -2.68858307       0.00322678       0.00000000
Si      -2.60558259      -0.14991687      -2.77130506       0.00000000
Si      -0.03898197       2.80109811      -2.60537814       0.00000000
Si      -2.69995349       0.05957253       2.71176432       0.00000000
Si       0.02410920      -2.67778280       2.74514075       0.00000000
