10
Lattice="16.290000149 0.0 0.0 0.0 16.290000149 0.0 0.0 0.0 29.1751946751" Properties=species:S:1:pos:R:3:initial_magmoms:R:1 pbc="T T T"
Si      -1.36783873       1.38767995       1.31189180       0.00000000
Si      -1.36032904      -1.34615674      -1.36665364       0.00000000
Si       1.35371530       1.34739478      -1.37383074       0.00000000
Si       1.34688979      -1.33345054       1.40650696       0.00000000
Si       0.01436778       2.73707841       2.65362983       0.00000000
Si       2.66932829      -2.72581713       0.03897806       0.00000000
Si      -2.69586470      -2.70975845       0.00242154       0.00000000
Si      -0.06758721      -2.61498322       2.78710635       0.00000000
Si      -0.00990432      -2.69488568      -2.74033851       0.00000000
Si       2.72710892       2.71099811      -0.04134125       0.00000000
