10
Lattice="16.290000149 0.0 0.0 0.0 16.290000149 0.0 0.0 0.0 29.1751946751" Properties=species:S:1:pos:R:3:initial_magmoms:R:1 pbc="T T T"
H        0.43722360       1.28187640      -0.67362607       0.00000000
Si      -0.80853787       0.98398117       1.94589796       0.00000000
Si      -1.87445774      -0.73521658      -1.25540863       0.00000000
Si       2.01031634      -1.37412667      -0.06964119       0.00000000
H        0.96501961      -0.26578764      -2.45430490       0.00000000
H       -0.65005246      -2.66927942      -1.04187538       0.00000000
Si       3.17165814       0.68344696      -0.66046806       0.00000000
Si      -2.31345695       2.29425104       0.65305756       0.00000000
Si       0.78933196      -2.96839641      -1.48064113       0.00000000
Si       2.00091701       0.83624716      -2.67387742       0.00000000
