10
Lattice="16.290000149 0.0 0.0 0.0 16.290000149 0.0 0.0 0.0 29.1751946751" Properties=species:S:1:pos:R:3:initial_magmoms:R:1 pbc="T T T"
Si       1.61523496      -0.15936507      -1.67614411       0.00000000
Si      -0.43319997       2.28949925      -0.30645624       0.00000000
Si       0.25107777      -0.51121278       2.29714309       0.00000000
Si      -1.89418493      -1.30249954      -0.63727378       0.00000000
H        1.32812371      -2.22637061       1.50013016       0.00000000
H       -2.77500153      -0.44932707      -1.52752567       0.00000000
Si      -1.49481928       1.03189006       2.74594307       0.00000000
Si       0.05348007      -0.93893932      -3.27301921       0.00000000
Si      -2.32893245       2.27544749       1.03183911       0.00000000
Si      -0.86276728      -2.78490585      -2.11455976       0.00000000
