10
Lattice="16.290000149 0.0 0.0 0.0 16.290000149 0.0 0.0 0.0 29.1751946751" Properties=species:S:1:pos:R:3:initial_magmoms:R:1 pbc="T T T"
Si       1.22802166      -1.53106453       1.23804939       0.00000000
Si      -1.38380293      -1.34925184      -1.29695410       0.00000000
Si      -1.04689315       1.47489661       1.47804454       0.00000000
Si       1.37313298       1.31497768      -1.35935985       0.00000000
Si       0.76751965       2.23205582       2.86185320       0.00000000
Si      -2.36200115       0.11784186       2.86345783       0.00000000
Si      -0.01669725      -2.68921838      -2.63087318       0.00000000
Si      -0.00915498       2.61293231      -2.71845711       0.00000000
Si      -2.73109998       0.01529631      -2.60050180       0.00000000
Si      -2.49507416       2.82595665       0.19512370       0.00000000
