10
Lattice="16.290000149 0.0 0.0 0.0 16.290000149 0.0 0.0 0.0 29.1751946751" Properties=species:S:1:pos:R:3:initial_magmoms:R:1 pbc="T T T"
Si      -1.08149311      -1.16626627       1.70619456       0.00000000
Si       0.87364900      -1.78321745      -1.28300836       0.00000000
Si       1.87253552       1.46473165       0.15281967       0.00000000
Si      -1.59796756       1.30139182      -1.21295872       0.00000000
H        0.47877939       2.30228201       1.78756418       0.00000000
H       -1.23634585      -0.37020654       2.98193830       0.00000000
H        2.59452461       1.55033560       1.47352238       0.00000000
Si       1.99205525      -0.34751457      -2.83836716       0.00000000
Si      -3.29189952      -1.08809056       0.89897527       0.00000000
Si      -0.28285956       2.65844657      -2.59837201       0.00000000
