10
Lattice="16.290000149 0.0 0.0 0.0 16.290000149 0.0 0.0 0.0 29.1751946751" Properties=species:S:1:pos:R:3:initial_magmoms:R:1 pbc="T T T"
Si      -1.40038615       1.42557049      -1.22147788       0.00000000
Si      -1.32706486      -1.38118024       1.37722673       0.00000000
Si       1.20041011      -1.47009106      -1.43317309       0.00000000
Si       1.30644172       1.44697555       1.37235448       0.00000000
H        3.21768228       1.73029124      -0.51184962       0.00000000
Si      -0.00462636       2.65416230      -2.64925355       0.00000000
Si       2.66885588      -2.67949325       0.02608262       0.00000000
Si       2.53171037      -0.13851387      -2.83369913       0.00000000
Si      -2.90872614       0.14250492      -2.50276490       0.00000000
Si       2.73447201       0.08086356       2.70655655       0.00000000
