10
Lattice="16.290000149 0.0 0.0 0.0 16.290000149 0.0 0.0 0.0 29.1751946751" Properties=species:S:1:pos:R:3:initial_magmoms:R:1 pbc="T T T"
Si       1.15841449       0.13592376      -2.05189144       0.00000000
Si      -0.91624735      -1.84596653       1.15845945       0.00000000
Si       1.56175489       0.77957425       1.59687511       0.00000000
Si      -1.93634345       1.48654396      -0.32048951       0.00000000
Si      -1.94766500      -0.36356022       2.63574544       0.00000000
H       -2.82848160       0.48961224       1.74549355       0.00000000
H        1.83443321      -2.85834117      -0.16822417       0.00000000
Si      -0.05348007       0.93893932       3.27301921       0.00000000
Si       2.39485808       2.71593236       0.58656729       0.00000000
Si       2.67846698       1.98868322      -1.62266598       0.00000000
