10
Lattice="16.290000149 0.0 0.0 0.0 16.290000149 0.0 0.0 0.0 29.1751946751" Properties=species:S:1:pos:R:3:initial_magmoms:R:1 pbc="T T T"
Si       0.34839423      -0.88392799      -2.13474899       0.00000000
Si      -1.82087993       1.45808533       0.16411047       0.00000000
Si       1.61499061       1.69262876       0.07115830       0.00000000
Si       0.23824125      -1.50887755       1.83713283       0.00000000
H       -0.89669935      -1.44826246       2.83938830       0.00000000
Si       1.06288993       2.72515412       2.08173767       0.00000000
Si       2.31099716      -0.81691093       2.72540081       0.00000000
Si       1.39826845       0.88571989      -3.31605263       0.00000000
Si      -3.65174562       0.16676073       0.80088827       0.00000000
H       -1.82682578       0.31491828       3.28810279       0.00000000
