10
Lattice="16.290000149 0.0 0.0 0.0 16.290000149 0.0 0.0 0.0 29.1751946751" Properties=species:S:1:pos:R:3:initial_magmoms:R:1 pbc="T T T"
Si      -1.37207413      -1.40618539      -1.31216313       0.00000000
Si      -1.34638480       1.27930258       1.46042272       0.00000000
Si       1.33931494      -1.33646419       1.42185311       0.00000000
Si       1.34151409       1.41807709      -1.35996961       0.00000000
Si       2.67185324      -0.02174715      -2.67462430       0.00000000
Si       0.05945850      -2.77724955      -2.59723126       0.00000000
Si      -2.68099193      -2.69568551       0.15821708       0.00000000
Si      -2.77990482       2.59879259       0.17770611       0.00000000
Si      -2.72002277      -0.04396671      -2.68929942       0.00000000
Si       2.68825727       2.75107152       0.02885427       0.00000000
