10
Lattice="16.290000149 0.0 0.0 0.0 16.290000149 0.0 0.0 0.0 29.1751946751" Properties=species:S:1:pos:R:3:initial_magmoms:R:1 pbc="T T T"
Si      -1.30362355       1.37772676      -1.37899475       0.00000000
Si       1.38028103       1.36249561       1.33088486       0.00000000
Si       1.39650099      -1.33539883      -1.34894430       0.00000000
Si      -1.38313504      -1.33799545       1.38153299       0.00000000
Si       0.07493400      -2.64049679       2.65742261       0.00000000
Si      -2.67905342      -0.00197109      -2.68866924       0.00000000
Si      -2.62904312       2.74750401      -0.00846081       0.00000000
Si       0.02604771      -2.70790301      -2.67869132       0.00000000
Si      -2.61591338       0.09337428       2.79440015       0.00000000
Si       2.72129339       0.02321325       2.70874177       0.00000000
