10
Lattice="16.290000149 0.0 0.0 0.0 16.290000149 0.0 0.0 0.0 29.1751946751" Properties=species:S:1:pos:R:3:initial_magmoms:R:1 pbc="T T T"
Si       1.36277254      -1.33968961       1.36405705       0.00000000
Si       1.35545833       1.37051029      -1.34646441       0.00000000
Si      -1.35523027       1.35268903       1.36595344       0.00000000
Si      -1.33525873      -1.40431204      -1.33855793       0.00000000
Si       2.70684416      -2.67056633      -0.02261078       0.00000000
Si      -2.76877875      -0.08482203      -2.62127454       0.00000000
Si       0.01049076      -2.73101852       2.69126583       0.00000000
Si      -2.72446994       2.70096347       0.02476974       0.00000000
Si       0.00920385       2.71552673      -2.71165929       0.00000000
Si       2.71322984       2.71832861       0.02083109       0.00000000
