10
Lattice="16.290000149 0.0 0.0 0.0 16.290000149 0.0 0.0 0.0 29.1751946751" Properties=species:S:1:pos:R:3:initial_magmoms:R:1 pbc="T T T"
Si      -1.37881819       1.34640109       1.32254075       0.00000000
Si      -1.37028223      -1.36138789      -1.32738383       0.00000000
Si       1.35228178       1.39132891      -1.32720878       0.00000000
Si       1.35529543      -1.33193557       1.38660948       0.00000000
Si       0.04263093       2.65763207       2.63428668       0.00000000
Si       0.01519857      -2.67587687      -2.68545997       0.00000000
Si       2.70381422      -2.67859730       0.02065604       0.00000000
Si      -2.72582201       0.00891063      -2.66652527       0.00000000
Si      -2.72684828      -0.00864999       2.68003338       0.00000000
Si       2.69635340       0.06045219      -2.71387661       0.00000000
