10
Lattice="16.290000149 0.0 0.0 0.0 16.290000149 0.0 0.0 0.0 29.1751946751" Properties=species:S:1:pos:R:3:initial_magmoms:R:1 pbc="T T T"
H       -0.59611627      -0.08783568      -1.40227656       0.00000000
Si      -1.71598862       0.44343009       1.52242001       0.00000000
Si       0.48000114      -2.03017385       1.05660885       0.00000000
Si       1.89288173       1.49636683       0.32719981       0.00000000
H        1.51962895      -0.83978209      -1.71631835       0.00000000
Si       0.79763986      -0.92538604      -3.03702106       0.00000000
Si      -2.56033190       2.28752327       0.39532389       0.00000000
Si      -0.33762654       1.47062863       3.15611421       0.00000000
Si       2.07280478      -1.21901329       2.62031176       0.00000000
Si       0.92479960       2.95670019       1.83249398       0.00000000
