10
Lattice="16.290000149 0.0 0.0 0.0 16.290000149 0.0 0.0 0.0 29.1751946751" Properties=species:S:1:pos:R:3:initial_magmoms:R:1 pbc="T T T"
Si      -1.36891387      -1.34838847      -1.33771185       0.00000000
Si      -1.36544410       1.34705269       1.34981956       0.00000000
Si       1.32511006      -1.38344455       1.36023510       0.00000000
Si       1.38507078       1.33195186      -1.36749972       0.00000000
Si       0.07415208      -2.68011716      -2.61972826       0.00000000
Si       2.69568226      -0.01451439       2.68475976       0.00000000
Si      -0.00633681       2.71148681       2.68093781       0.00000000
Si      -2.69495246       2.71420724      -0.02517819       0.00000000
Si       0.05501133       2.74095543      -2.67831205       0.00000000
Si      -2.72153774      -0.02932200       2.70617436       0.00000000
