10
Lattice="16.290000149 0.0 0.0 0.0 16.290000149 0.0 0.0 0.0 29.1751946751" Properties=species:S:1:pos:R:3:initial_magmoms:R:1 pbc="T T T"
Si       1.37482714       1.34260552      -1.34240906       0.00000000
Si       1.36172998      -1.39470094       1.30544409       0.00000000
Si      -1.35417142      -1.35307999      -1.36108118       0.00000000
Si      -1.35567010       1.36883242       1.34850667       0.00000000
Si       0.00558747       2.69087996      -2.68359276       0.00000000
Si       2.78317911      -0.08346996       2.61719001       0.00000000
Si      -2.73686663       0.00770517       2.66818825       0.00000000
Si       0.01369989      -2.74975203       2.66293672       0.00000000
Si       0.01472616      -2.73219140      -2.68362193       0.00000000
Si       0.01917333       2.73694809       2.68163802       0.00000000
