10
Lattice="16.290000149 0.0 0.0 0.0 16.290000149 0.0 0.0 0.0 29.1751946751" Properties=species:S:1:pos:R:3:initial_magmoms:R:1 pbc="T T T"
Si      -1.30321630      -1.35382933       1.43399291       0.00000000
Si       1.35974749      -1.45829710      -1.28775225       0.00000000
Si       1.39054048       1.28697517       1.43445971       0.00000000
Si      -1.30082167       1.53034777      -1.31690994       0.00000000
Si       2.70606224       0.00311139      -2.52081384       0.00000000
Si      -2.53302986       2.73164292       0.27836637       0.00000000
Si      -2.64995948      -2.68682375       0.04516904       0.00000000
Si       2.80254792       2.67740813       0.17799786       0.00000000
Si      -2.64714131      -0.05077593       2.85765489       0.00000000
Si       0.10903141       2.63205677       2.89079791       0.00000000
