10
Lattice="16.290000149 0.0 0.0 0.0 16.290000149 0.0 0.0 0.0 29.1751946751" Properties=species:S:1:pos:R:3:initial_magmoms:R:1 pbc="T T T"
Si      -1.32989932       1.31437495       1.41950159       0.00000000
Si      -1.42638499      -1.35992179      -1.27931011       0.00000000
Si       1.32877531      -1.39566205       1.36915104       0.00000000
Si       1.33569856       1.36465583      -1.40798031       0.00000000
Si       0.01671354      -2.55396251      -2.63835662       0.00000000
Si       2.63316449       2.64871004       0.09773690       0.00000000
Si      -2.60881909       2.68727010       0.03207521       0.00000000
Si      -2.74190676      -0.07605801       2.67596344       0.00000000
Si       2.66561417      -0.07079634       2.77405045       0.00000000
Si       2.71026506      -2.75193489       0.04411289       0.00000000
