10
Lattice="16.290000149 0.0 0.0 0.0 16.290000149 0.0 0.0 0.0 29.1751946751" Properties=species:S:1:pos:R:3:initial_magmoms:R:1 pbc="T T T"
Si      -1.33343425      -1.34014573       1.32869380       0.00000000
Si       1.49825647      -1.23520229      -1.27988662       0.00000000
Si      -1.24958962       1.37020078      -1.41313556       0.00000000
Si       1.41975496       1.42939864       1.23518730       0.00000000
Si       0.65837665       2.16031466      -2.53443166       0.00000000
H       -0.55371340      -0.45763497      -3.33554457       0.00000000
Si       2.36400482       0.49238154      -2.66269923       0.00000000
Si       0.10057446      -2.68670972       2.59017087       0.00000000
Si      -2.66361050       0.07956036       2.61485308       0.00000000
Si      -2.69413796      -2.62254068      -0.08132586       0.00000000
