10
Lattice="16.290000149 0.0 0.0 0.0 16.290000149 0.0 0.0 0.0 29.1751946751" Properties=species:S:1:pos:R:3:initial_magmoms:R:1 pbc="T T T"
Si       1.27172952      -1.35964486      -1.42240744       0.00000000
Si       1.36645425       1.40383963       1.31209603       0.00000000
Si      -1.38871746       1.34840476      -1.35828036       0.00000000
Si      -1.29672783      -1.35752716       1.44388038       0.00000000
Si       2.61274188      -2.69892722      -0.04455052       0.00000000
Si      -0.06015392       2.62858700       2.70325684       0.00000000
Si      -2.72446490      -2.62876619       0.04110785       0.00000000
Si       2.61295365       0.01125639      -2.78386790       0.00000000
Si      -0.03488813       2.70370019      -2.74535664       0.00000000
Si      -2.77317200       2.69363297      -0.00277164       0.00000000
