10
Lattice="16.290000149 0.0 0.0 0.0 16.290000149 0.0 0.0 0.0 29.1751946751" Properties=species:S:1:pos:R:3:initial_magmoms:R:1 pbc="T T T"
Si      -2.23190921       0.50378454      -0.33023403       0.00000000
Si       0.89792110      -1.42750900       1.58205411       0.00000000
Si       0.55210069      -1.03252537      -2.01057937       0.00000000
Si       1.24240573       1.78505822      -0.84613900       0.00000000
H       -0.01273878      -1.50273622       2.79755107       0.00000000
Si       0.60185035       1.11259398      -2.99261642       0.00000000
Si       2.77532733      -0.07612317       1.97565666       0.00000000
Si       3.30074499       1.17218443       0.04026177       0.00000000
Si       1.15940818       1.44911606       3.05356340       0.00000000
Si      -1.06288993      -2.72515412      -2.08173767       0.00000000
