10
Lattice="16.290000149 0.0 0.0 0.0 16.290000149 0.0 0.0 0.0 29.1751946751" Properties=species:S:1:pos:R:3:initial_magmoms:R:1 pbc="T T T"
Si      -1.34781340      -1.35378046       1.35734676       0.00000000
Si      -1.36858315       1.35633799      -1.34103782       0.00000000
Si       1.33065521      -1.34943103      -1.39066483       0.00000000
Si       1.31480015       1.36603054       1.39399080       0.00000000
Si       0.02981806       2.69135237      -2.67519030       0.00000000
Si       2.68269101      -2.70811478      -0.03110076       0.00000000
Si      -2.69186874       0.01225008       2.70713714       0.00000000
Si       2.68995635       2.71476110       0.04367527       0.00000000
Si      -2.71904046      -2.70168023       0.00218814       0.00000000
Si       2.70179918       0.01632258       2.72572174       0.00000000
