10
Lattice="16.290000149 0.0 0.0 0.0 16.290000149 0.0 0.0 0.0 29.1751946751" Properties=species:S:1:pos:R:3:initial_magmoms:R:1 pbc="T T T"
Si       1.34851879      -1.34666173      -1.36595344       0.00000000
Si      -1.35436690      -1.37269315       1.34480142       0.00000000
Si      -1.35529543       1.33193557      -1.38660948       0.00000000
Si       1.36860436       1.33845157       1.37003797       0.00000000
Si      -0.01166364       2.68496669       2.70369447       0.00000000
Si      -2.72403011      -0.01097946       2.67040557       0.00000000
Si       2.68429880      -2.72279207      -0.01272038       0.00000000
Si      -0.01058850      -2.71109585      -2.69707170       0.00000000
Si      -2.73411363       2.67833666      -0.06406873       0.00000000
Si       2.71242301       2.71339274       0.00962781       0.00000000
