10
Lattice="16.290000149 0.0 0.0 0.0 16.290000149 0.0 0.0 0.0 29.1751946751" Properties=species:S:1:pos:R:3:initial_magmoms:R:1 pbc="T T T"
Si      -1.36177559      -1.34881201       1.35545037       0.00000000
Si      -1.38699903       1.34970796      -1.33173094       0.00000000
Si       1.32092353      -1.36212094      -1.39022720       0.00000000
Si       1.36976095       1.36182772       1.35157007       0.00000000
Si      -0.01184283       2.69843852      -2.68204647       0.00000000
Si       0.01560582      -2.69154785       2.70597013       0.00000000
Si       2.68959305      -2.71932230      -0.06243492       0.00000000
Si       2.68762196      -0.01803303      -2.73514533       0.00000000
Si      -2.70179918      -0.01632258      -2.72572174       0.00000000
Si      -2.70540298      -2.72787456      -0.00008753       0.00000000
