10
Lattice="16.290000149 0.0 0.0 0.0 16.290000149 0.0 0.0 0.0 29.1751946751" Properties=species:S:1:pos:R:3:initial_magmoms:R:1 pbc="T T T"
Si       1.23698116      -1.65188747       1.13234766       0.00000000
Si       1.27966096       1.29402874      -1.52384959       0.00000000
Si      -1.00273096       1.78800671       1.24893173       0.00000000
Si      -1.29360520      -1.60228441      -1.30804068       0.00000000
H       -1.46324926      -0.35655552      -2.37588198       0.00000000
H        0.20108376      -2.75392227       1.35192017       0.00000000
H       -2.97931071      -0.97420717       0.19445267       0.00000000
H       -0.32671224      -1.20625822       3.13259900       0.00000000
H       -2.65908188      -1.36226755      -2.01002504       0.00000000
H       -1.94719259       0.52916436      -3.13528312       0.00000000
