10
Lattice="16.290000149 0.0 0.0 0.0 16.290000149 0.0 0.0 0.0 29.1751946751" Properties=species:S:1:pos:R:3:initial_magmoms:R:1 pbc="T T T"
Si       0.84875788      -1.87522337      -1.11347130       0.00000000
Si       1.48844989       1.25187022       1.37514363       0.00000000
Si      -1.38864106       1.31522203      -1.42973041       0.00000000
Si      -1.31084002      -1.36741519       1.48527999       0.00000000
H        1.38406357      -1.61608204      -2.49754254       0.00000000
H        2.66419694       0.13348026      -2.07984128       0.00000000
Si       0.00814500       2.55120315       2.71565630       0.00000000
Si      -2.79370245       2.49590495       0.04344186       0.00000000
H       -0.21277998      -0.77401936      -3.67102722       0.00000000
Si       2.53684172      -2.80166826       0.20098792       0.00000000
