10
Lattice="16.290000149 0.0 0.0 0.0 16.290000149 0.0 0.0 0.0 29.1751946751" Properties=species:S:1:pos:R:3:initial_magmoms:R:1 pbc="T T T"
Si       1.91692577      -1.05726011       0.78177852       0.00000000
Si      -1.25175619      -1.32057493      -1.47104249       0.00000000
Si       1.16111863       1.43930948      -1.50514829       0.00000000
Si      -0.97013467       0.40093600       2.15496740       0.00000000
H       -1.87483241       1.96085012       0.65442879       0.00000000
Si       0.04893516       2.55222600       2.54743212       0.00000000
Si      -2.59656086      -2.61097100      -0.09910814       0.00000000
Si       3.66065625      -0.71887282      -0.70916146       0.00000000
Si       2.60307686       2.76614628      -0.29414431       0.00000000
Si       2.68226255       0.12452891      -2.70302344       0.00000000
