10
Lattice="16.290000149 0.0 0.0 0.0 16.290000149 0.0 0.0 0.0 29.1751946751" Properties=species:S:1:pos:R:3:initial_magmoms:R:1 pbc="T T T"
Si       1.36029646      -1.35365829       1.35154089       0.00000000
Si      -1.36256077       1.36281327       1.34558915       0.00000000
Si       1.34980570       1.38763923      -1.33531949       0.00000000
Si      -1.34667802      -1.38827454      -1.33893721       0.00000000
Si      -2.78068674      -0.04171055      -2.60041428       0.00000000
Si       0.00043983      -2.71634938       2.69406665       0.00000000
Si       2.79287166       0.05591054      -2.61733589       0.00000000
Si      -0.00281817       2.70670570       2.70856672       0.00000000
Si      -0.02749752       2.72783383      -2.69392078       0.00000000
Si      -2.72751617       0.01559930       2.69508778       0.00000000
