10
Lattice="16.290000149 0.0 0.0 0.0 16.290000149 0.0 0.0 0.0 29.1751946751" Properties=species:S:1:pos:R:3:initial_magmoms:R:1 pbc="T T T"
Si      -1.36495540      -1.34721396       1.34949863       0.00000000
Si      -1.36290286       1.36578619      -1.33508608       0.00000000
Si       1.35974260       1.34389243       1.36297757       0.00000000
Si       1.36256077      -1.36281327      -1.34558915       0.00000000
Si       0.00863370      -2.69470811       2.68455554       0.00000000
Si       2.71236647       0.02482596      -2.68090864       0.00000000
Si       0.00773775       2.72367173      -2.67320639       0.00000000
Si      -2.74830222       0.01518228      -2.65984415       0.00000000
Si      -0.00133578       2.69506649       2.71600640       0.00000000
Si      -2.71448417      -2.71798652      -0.00084608       0.00000000
