10
Lattice="16.290000149 0.0 0.0 0.0 16.290000149 0.0 0.0 0.0 29.1751946751" Properties=species:S:1:pos:R:3:initial_magmoms:R:1 pbc="T T T"
Si       1.36177559       1.34881201      -1.35545037       0.00000000
Si       1.37738141      -1.34273584       1.35051976       0.00000000
Si      -1.34028739       1.35588187       1.37975331       0.00000000
Si      -1.34362739      -1.37906254      -1.35553789       0.00000000
Si       2.67419575      -2.70212006      -0.06608182       0.00000000
Si      -2.69094838      -0.05846481       2.68986542       0.00000000
Si      -0.02522344       2.69851997      -2.68718131       0.00000000
Si      -2.68783699      -0.02129103      -2.72382535       0.00000000
Si       2.68269913      -0.01330893      -2.74567757       0.00000000
Si       0.04738272      -2.74271475       2.68922357       0.00000000
