10
Lattice="16.290000149 0.0 0.0 0.0 16.290000149 0.0 0.0 0.0 29.1751946751" Properties=species:S:1:pos:R:3:initial_magmoms:R:1 pbc="T T T"
Si       0.15485274      -0.79605973      -1.27574374       0.00000000
H       -1.40506138       2.03062997      -0.45714613       0.00000000
Si       0.92119951      -0.16586478       2.54075100       0.00000000
H       -1.29070558      -2.67328676       0.43532308       0.00000000
Si      -2.05555367      -0.71788402      -2.08296302       0.00000000
Si       1.01586070      -2.87490810      -0.48427906       0.00000000
Si      -0.79718374       1.46491084       2.64505232       0.00000000
Si       2.79124266       0.73015039       1.26451129       0.00000000
Si       0.87291595      -2.45985518       1.87433121       0.00000000
Si       1.23634585       0.37020654      -2.98193830       0.00000000
