10
Lattice="16.290000149 0.0 0.0 0.0 16.290000149 0.0 0.0 0.0 29.1751946751" Properties=species:S:1:pos:R:3:initial_magmoms:R:1 pbc="T T T"
Si       0.17783793      -1.38796177      -0.60958652       0.00000000
Si      -0.69587623       1.82783576       1.92240901       0.00000000
Si      -0.51137568       1.28019853      -2.39604204       0.00000000
Si      -2.53431677       0.94656304       0.73539287       0.00000000
Si      -2.45109116       0.25378191      -1.49423677       0.00000000
Si       1.21209004       2.61794963       0.80111292       0.00000000
Si       2.05196987      -0.77756732       2.05565796       0.00000000
Si       1.01195110      -2.63151920       1.10451744       0.00000000
Si       2.91771822       0.95001652       0.67284534       0.00000000
Si       2.07357041      -1.37391002      -1.94788187       0.00000000
