10
Lattice="16.290000149 0.0 0.0 0.0 16.290000149 0.0 0.0 0.0 29.1751946751" Properties=species:S:1:pos:R:3:initial_magmoms:R:1 pbc="T T T"
Si       1.34842105       1.36150192       1.35034471       0.00000000
Si      -1.34331414       1.35796699      -1.36332767       0.00000000
Si       1.35876520      -1.35553978      -1.35396243       0.00000000
Si      -1.36774425      -1.36537894       1.34378029       0.00000000
Si      -0.03389949      -2.69858513      -2.68338853       0.00000000
Si       2.69122205      -0.02086749       2.69482521       0.00000000
Si      -2.67835572      -0.01891269      -2.70847920       0.00000000
Si      -0.04030146       2.71205696       2.68292173       0.00000000
Si       2.69671178       2.70969491      -0.02707458       0.00000000
Si       2.68861565      -2.72521928       0.01878883       0.00000000
