10
Lattice="16.290000149 0.0 0.0 0.0 16.290000149 0.0 0.0 0.0 29.1751946751" Properties=species:S:1:pos:R:3:initial_magmoms:R:1 pbc="T T T"
Si       1.30127779       1.23742099      -1.50021769       0.00000000
Si       1.44818101      -1.35106003       1.28292084       0.00000000
Si      -1.50464215       1.33349941       1.25103235       0.00000000
Si      -1.43382952      -1.40962258      -1.31918560       0.00000000
Si       2.49507416      -2.82595665      -0.19512370       0.00000000
Si      -2.81758847      -0.15760575       2.52207888       0.00000000
Si      -0.11624544       2.60946254      -2.75553879       0.00000000
Si       0.13307301      -2.70811478       2.66833413       0.00000000
Si       2.48591918      -0.21302433      -2.91358082       0.00000000
Si       3.15633414       2.16611390      -0.39123936       0.00000000
