10
Lattice="16.290000149 0.0 0.0 0.0 16.290000149 0.0 0.0 0.0 29.1751946751" Properties=species:S:1:pos:R:3:initial_magmoms:R:1 pbc="T T T"
Si       1.30596931      -1.42649902      -1.30036293       0.00000000
Si       1.41426523       1.29585322       1.34277842       0.00000000
Si      -1.29919267      -1.48445884       1.27364487       0.00000000
Si      -1.27928629       1.49382559      -1.33969110       0.00000000
Si       2.56839545       0.05957253      -2.62398317       0.00000000
Si      -2.68340285      -0.11323179       2.62473355       0.00000000
Si       0.03277548       2.65212605       2.66781656       0.00000000
Si      -2.63850761       0.14998203      -2.68329634       0.00000000
Si      -0.07239276      -2.45369756      -2.93405713       0.00000000
Si      -2.72238482       2.68786631       0.01935541       0.00000000
