10
Lattice="16.290000149 0.0 0.0 0.0 16.290000149 0.0 0.0 0.0 29.1751946751" Properties=species:S:1:pos:R:3:initial_magmoms:R:1 pbc="T T T"
Si       0.88081660      -0.85317247       0.89025189       0.00000000
H       -1.89592796      -0.42968133      -1.24408865       0.00000000
Si       0.89213815       0.99693172      -2.06598306       0.00000000
Si      -0.98526808      -0.35445411      -2.45958561       0.00000000
Si      -0.72378100       2.52217095      -0.98807632       0.00000000
Si      -1.45402912       2.17596935       1.27320550       0.00000000
Si       1.91223425      -2.33557877      -0.58703409       0.00000000
Si      -0.51494319      -2.08176428       2.31802757       0.00000000
Si       2.77500153       0.44932707       1.52752567       0.00000000
Si       2.82848160      -0.48961224      -1.74549355       0.00000000
