10
Lattice="16.290000149 0.0 0.0 0.0 16.290000149 0.0 0.0 0.0 29.1751946751" Properties=species:S:1:pos:R:3:initial_magmoms:R:1 pbc="T T T"
Si      -1.36723600      -1.35001747       1.35084944       0.00000000
Si       1.30399822       1.29485953       1.47650700       0.00000000
Si      -1.37191123       1.41206608      -1.30372858       0.00000000
Si       1.36388026      -1.34789977      -1.39049853       0.00000000
Si       2.65974977       2.63510300       0.16136800       0.00000000
Si       2.71182890      -2.71011845      -0.01336224       0.00000000
Si      -0.01602936      -2.66893733       2.75896104       0.00000000
Si      -2.73012257       0.02340873       2.70058147       0.00000000
Si      -2.71125875      -2.71961552      -0.01193849       0.00000000
Si      -2.78617647       0.11621286      -2.64650700       0.00000000
