10
Lattice="16.290000149 0.0 0.0 0.0 16.290000149 0.0 0.0 0.0 29.1751946751" Properties=species:S:1:pos:R:3:initial_magmoms:R:1 pbc="T T T"
Si       2.26494370      -0.50520177       0.10155885       0.00000000
Si      -0.28360890       0.72724914       2.20923327       0.00000000
Si      -0.57678004       1.71817148      -1.53802874       0.00000000
Si      -1.52005249      -1.85275946      -0.42922546       0.00000000
H       -1.31882212       1.85073787       2.23805836       0.00000000
Si       2.53790057      -1.32307381      -2.05690957       0.00000000
Si      -1.11671209      -1.20910897       3.21954108       0.00000000
Si      -2.57460194       2.59709843      -0.56115569       0.00000000
Si      -2.67846698      -1.98868322       1.62266598       0.00000000
Si      -1.76748131       0.56647954      -3.22595963       0.00000000
