10
Lattice="16.290000149 0.0 0.0 0.0 16.290000149 0.0 0.0 0.0 29.1751946751" Properties=species:S:1:pos:R:3:initial_magmoms:R:1 pbc="T T T"
Si       0.96808213      -1.46033335      -1.50529417       0.00000000
Si      -1.68808385       0.92644489      -1.31445922       0.00000000
Si      -1.26242614      -1.48607155       1.32362023       0.00000000
Si       1.50833998       1.28306557       1.28128702       0.00000000
H       -1.15277815       1.18558621      -2.69853046       0.00000000
Si      -0.92479960      -2.95670019      -1.83249398       0.00000000
Si      -2.64078821      -2.51327009      -0.31007397       0.00000000
Si      -2.56839545      -0.05957253       2.62398317       0.00000000
H        0.12735522       2.93514852      -2.28082919       0.00000000
Si       0.16744491       2.63974565       2.62451707       0.00000000
