10
Lattice="16.290000149 0.0 0.0 0.0 16.290000149 0.0 0.0 0.0 29.1751946751" Properties=species:S:1:pos:R:3:initial_magmoms:R:1 pbc="T T T"
Si       1.41752323      -1.37204155       1.25532110       0.00000000
Si       1.37533213       1.31921308      -1.36507818       0.00000000
Si      -1.33947784       1.32958981       1.40907438       0.00000000
Si      -1.35324289      -1.38148975      -1.35419584       0.00000000
Si       0.11624544      -2.60946254       2.75553879       0.00000000
Si      -2.68905223       2.68159466       0.02439046       0.00000000
Si       0.00091224       2.67188582      -2.70859590       0.00000000
Si       2.78185962       2.64534941      -0.01026967       0.00000000
Si       0.07543899       2.72461655       2.70728301       0.00000000
Si       2.60216462      -2.82248688      -0.15804203       0.00000000
