10
Lattice="16.290000149 0.0 0.0 0.0 16.290000149 0.0 0.0 0.0 29.1751946751" Properties=species:S:1:pos:R:3:initial_magmoms:R:1 pbc="T T T"
Si       1.38148975      -1.35627283      -1.32503815       0.00000000
Si       1.33683886       1.32486571       1.40489941       0.00000000
Si      -1.35347095      -1.39769830       1.32008712       0.00000000
Si      -1.32877531       1.39566205      -1.36915104       0.00000000
Si      -0.03277548      -2.65212605      -2.66781656       0.00000000
Si      -2.65867463       2.71003700       0.05035055       0.00000000
Si       2.70306488       0.04719213      -2.66728266       0.00000000
Si      -2.70521516      -0.02839347       2.67871758       0.00000000
Si      -2.75516031       0.03574026      -2.64846115       0.00000000
Si       2.68670972       2.72010696       0.09462974       0.00000000
