10
Lattice="16.290000149 0.0 0.0 0.0 16.290000149 0.0 0.0 0.0 29.1751946751" Properties=species:S:1:pos:R:3:initial_magmoms:R:1 pbc="T T T"
Si      -1.56303040       1.07515630      -1.36221901       0.00000000
Si       1.38763108      -1.47535273      -1.21596376       0.00000000
Si      -0.85310731      -1.48349773       1.63264389       0.00000000
Si       0.42599979       1.81475489       1.48166226       0.00000000
H        0.34419141      -1.11632113       2.52178713       0.00000000
Si      -1.88407372       1.98852032       2.08202942       0.00000000
Si      -0.25008408       2.56626146      -2.63326555       0.00000000
Si      -3.05481486       2.14132052       0.06862006       0.00000000
Si       2.70273908      -0.11829798      -2.60137706       0.00000000
Si      -0.11082087      -2.82356202      -2.51776095       0.00000000
