10
Lattice="16.290000149 0.0 0.0 0.0 16.290000149 0.0 0.0 0.0 29.1751946751" Properties=species:S:1:pos:R:3:initial_magmoms:R:1 pbc="T T T"
Si      -1.19729872      -0.36717660      -0.88914323       0.00000000
H        1.40506138      -2.03062997       0.45714613       0.00000000
Si      -0.34419141       1.11632113      -2.52178713       0.00000000
Si       0.08180838       2.93107602      -1.04012487       0.00000000
Si      -1.96366341      -2.48484404       0.28664629       0.00000000
Si       2.00031428       1.17312436       2.18746857       0.00000000
Si      -1.44945163      -1.57325563       2.37964558       0.00000000
Si       0.60787765      -0.56571913       3.10219845       0.00000000
Si      -0.65049229      -2.74851399      -1.62581690       0.00000000
H        3.12018663       0.64185859      -0.73722799       0.00000000
