10
Lattice="16.290000149 0.0 0.0 0.0 16.290000149 0.0 0.0 0.0 29.1751946751" Properties=species:S:1:pos:R:3:initial_magmoms:R:1 pbc="T T T"
Si       1.29296989       1.43786944       1.31180428       0.00000000
Si      -1.35413884       1.36635634      -1.33759515       0.00000000
Si      -1.30795669      -1.34763425       1.42328270       0.00000000
Si       1.42433245      -1.36215189      -1.29905472       0.00000000
Si       2.53146602       0.04740390       2.68350523       0.00000000
Si      -2.65215863      -2.69465924       0.03579796       0.00000000
Si       0.06284682      -2.70511742      -2.67612391       0.00000000
Si      -2.71000442      -0.00164529      -2.67472350       0.00000000
Si       0.02117700       2.70314633      -2.69870551       0.00000000
Si      -0.07413579       2.77783599       2.64572335       0.00000000
