10
Lattice="16.290000149 0.0 0.0 0.0 16.290000149 0.0 0.0 0.0 29.1751946751" Properties=species:S:1:pos:R:3:initial_magmoms:R:1 pbc="T T T"
Si      -1.36866952       1.35720136      -1.32779228       0.00000000
Si       1.34987086       1.35879778       1.35139502       0.00000000
Si      -1.37717290      -1.33160977       1.35180347       0.00000000
Si       1.37318185      -1.36435267      -1.33324805       0.00000000
Si       2.67525785      -0.07293033       2.63559956       0.00000000
Si      -0.00197109       2.70128927      -2.67271041       0.00000000
Si       0.00757485      -2.71953407      -2.68026678       0.00000000
Si      -2.70870122      -0.00511506      -2.69438758       0.00000000
Si      -2.68959305       2.71932230       0.06243492       0.00000000
Si      -0.06752205      -2.75682189       2.65103324       0.00000000
