10
Lattice="16.290000149 0.0 0.0 0.0 16.290000149 0.0 0.0 0.0 29.1751946751" Properties=species:S:1:pos:R:3:initial_magmoms:R:1 pbc="T T T"
Si      -1.40766615       1.30222261       1.32604177       0.00000000
Si       1.36565750      -1.23761647       1.45184521       0.00000000
Si       1.32999869       1.39997890      -1.33870381       0.00000000
Si      -1.39465044      -1.37652130      -1.30882841       0.00000000
Si       2.56346121      -2.63865422      -0.02459469       0.00000000
Si      -0.12198604       2.72464913       2.64096780       0.00000000
Si       2.62681302       0.04059468      -2.75530539       0.00000000
Si      -2.73482876      -0.01128897      -2.68435131       0.00000000
Si      -2.73833111       2.68424993       0.00064185       0.00000000
Si       0.00669193      -2.67638186       2.74862427       0.00000000
