10
Lattice="16.290000149 0.0 0.0 0.0 16.290000149 0.0 0.0 0.0 29.1751946751" Properties=species:S:1:pos:R:3:initial_magmoms:R:1 pbc="T T T"
Si       1.41683091      -1.21914361       1.38109537       0.00000000
Si      -1.28568012      -1.42242652      -1.31492602       0.00000000
Si      -1.34522007       1.30183165       1.42678372       0.00000000
Si       1.46574978       1.38640933      -1.21640139       0.00000000
Si       2.07766734       0.66415960       2.67446092       0.00000000
Si       0.43034108       2.32549526       2.57188094       0.00000000
Si      -2.61634507      -0.04039920      -2.64032594       0.00000000
Si       0.11617539       2.73841419      -2.60108531       0.00000000
Si       0.10388459      -2.71024877       2.65214190       0.00000000
Si      -2.57237836      -2.78646969       0.12063943       0.00000000
