10
Lattice="16.290000149 0.0 0.0 0.0 16.290000149 0.0 0.0 0.0 29.1751946751" Properties=species:S:1:pos:R:3:initial_magmoms:R:1 pbc="T T T"
Si      -1.30891780      -1.28950012       1.47038021       0.00000000
Si      -1.34794864       1.36221868      -1.37713629       0.00000000
Si       1.43153263      -1.37106415      -1.28506813       0.00000000
Si       1.37207413       1.40618539       1.31216313       0.00000000
Si      -2.62120763      -2.64951965       0.12530454       0.00000000
Si       2.64797210       0.06390567      -2.72828040       0.00000000
Si       2.74628226      -2.63490752       0.18813916       0.00000000
Si      -2.71182890       2.71011845       0.01336224       0.00000000
Si       2.71138907       0.06972120       2.73401625       0.00000000
Si      -2.73844676      -0.01650177      -2.71728135       0.00000000
