10
Lattice="16.290000149 0.0 0.0 0.0 16.290000149 0.0 0.0 0.0 29.1751946751" Properties=species:S:1:pos:R:3:initial_magmoms:R:1 pbc="T T T"
Si       1.25208199      -1.10582548       1.60574436       0.00000000
Si      -1.81350056      -1.32248086      -0.60340138       0.00000000
Si       1.21811734       1.32160771      -1.49624986       0.00000000
Si      -1.33286410       1.54828306       1.15758420       0.00000000
Si      -0.64365049      -1.11987724       2.94403972       0.00000000
H        3.09840690      -0.49484296      -0.74542622       0.00000000
Si      -0.19758141      -2.84772009      -1.68130812       0.00000000
Si       2.75304261       2.03960576       0.11518367       0.00000000
Si      -3.03337722       0.54802819      -1.55527128       0.00000000
Si      -2.54374868      -1.66868246       1.65788044       0.00000000
