10
Lattice="16.290000149 0.0 0.0 0.0 16.290000149 0.0 0.0 0.0 29.1751946751" Properties=species:S:1:pos:R:3:initial_magmoms:R:1 pbc="T T T"
H        0.48394332      -0.88571989       0.75940114       0.00000000
Si       0.69107068       0.82486045      -1.09614124       0.00000000
H       -1.41745807      -1.07766496      -0.33175114       0.00000000
H       -0.71188930      -1.89143192       1.12525808       0.00000000
Si       0.65358739      -2.13144878       1.82724244       0.00000000
Si      -2.18059571       0.94382632       1.64979891       0.00000000
Si       1.97977259       2.24647247       0.24708472       0.00000000
Si      -2.47534697       1.83941795      -0.58811357       0.00000000
Si      -0.87531058       1.91225054      -2.39761750       0.00000000
Si       1.95572855      -0.57736648      -2.45567614       0.00000000
