10
Lattice="16.290000149 0.0 0.0 0.0 16.290000149 0.0 0.0 0.0 29.1751946751" Properties=species:S:1:pos:R:3:initial_magmoms:R:1 pbc="T T T"
Si       1.37859013       1.36374994       1.30483141       0.00000000
Si      -1.31696506       1.39134520      -1.34173803       0.00000000
Si       1.32732550      -1.35865117      -1.36630354       0.00000000
Si      -1.37064061      -1.35788554       1.33812030       0.00000000
Si      -2.62925489       0.03132567      -2.68681370       0.00000000
Si      -0.00689067       2.67823892       2.66290754       0.00000000
Si       2.73823500       0.04593780      -2.62397908       0.00000000
Si       2.70809849      -0.00340461       2.67982916       0.00000000
Si      -0.09242946      -2.78804982      -2.60149084       0.00000000
Si      -0.00773775      -2.72367173       2.67320639       0.00000000
