10
Lattice="16.290000149 0.0 0.0 0.0 16.290000149 0.0 0.0 0.0 29.1751946751" Properties=species:S:1:pos:R:3:initial_magmoms:R:1 pbc="T T T"
Si       1.82021204      -0.88743034       1.14681855       0.00000000
Si      -0.87364900       1.78321745       1.28300836       0.00000000
Si       1.11840625       1.43570287      -1.55535880       0.00000000
Si      -1.01906983      -2.15129000      -0.39246472       0.00000000
H       -1.92376757      -0.59137588      -1.89300333       0.00000000
Si       2.60449409       2.45203598      -0.08615435       0.00000000
Si      -0.04893516      -2.55222600      -2.54743212       0.00000000
Si      -1.95514211       0.61695118       2.98920292       0.00000000
Si       0.99888652       3.24794910       1.43582803       0.00000000
H        3.19907910      -0.62706727      -1.76221093       0.00000000
