10
Lattice="16.290000149 0.0 0.0 0.0 16.290000149 0.0 0.0 0.0 29.1751946751" Properties=species:S:1:pos:R:3:initial_magmoms:R:1 pbc="T T T"
Si      -1.37859013      -1.36374994      -1.30483141       0.00000000
Si      -1.38548080       1.31448898       1.35807614       0.00000000
Si       1.32950836      -1.36715455       1.37499775       0.00000000
Si       1.32475168       1.38681658      -1.38293340       0.00000000
Si      -2.69555519       0.02759526      -2.64656943       0.00000000
Si      -0.01519857       2.67587687       2.68545997       0.00000000
Si      -0.05126463      -2.72240111      -2.67113495       0.00000000
Si       2.68861565      -0.00272043       2.70611601       0.00000000
Si       2.74996380       0.02674818      -2.65313385       0.00000000
Si       2.69495246      -2.71420724       0.02517819       0.00000000
