10
Lattice="16.290000149 0.0 0.0 0.0 16.290000149 0.0 0.0 0.0 29.1751946751" Properties=species:S:1:pos:R:3:initial_magmoms:R:1 pbc="T T T"
Si       1.35971002      -1.35755486      -1.33952071       0.00000000
Si       1.37308411       1.34768800       1.34293421       0.00000000
Si      -1.34459290      -1.35513253       1.36539911       0.00000000
Si      -1.32985045       1.36967950      -1.37275126       0.00000000
Si       0.00260640       2.70435179       2.67603638       0.00000000
Si       2.70837542       0.01632258      -2.67641566       0.00000000
Si       0.04427622      -2.70391196       2.69861798       0.00000000
Si       0.00413766      -2.72914518      -2.67787442       0.00000000
Si      -2.68861565       2.72521928      -0.01878883       0.00000000
Si      -2.70091460      -2.71779104       0.01479182       0.00000000
