10
Lattice="16.290000149 0.0 0.0 0.0 16.290000149 0.0 0.0 0.0 29.1751946751" Properties=species:S:1:pos:R:3:initial_magmoms:R:1 pbc="T T T"
Si      -1.37674936       1.36674730       1.31384654       0.00000000
Si      -1.37797111      -1.33599178      -1.34471390       0.00000000
Si       1.35648460       1.35413884      -1.35871799       0.00000000
Si       1.35430174      -1.35270532       1.36758725       0.00000000
Si      -0.00008145       2.70687674       2.64869922       0.00000000
Si      -0.00726534      -2.68198562      -2.68350523       0.00000000
Si      -2.73062756       0.01340667       2.67317721       0.00000000
Si       2.71538012      -2.70387938       0.01455842       0.00000000
Si       0.00094482       2.72443736      -2.69785943       0.00000000
Si       2.72769536       0.01089801       2.70007674       0.00000000
