10
Lattice="16.290000149 0.0 0.0 0.0 16.290000149 0.0 0.0 0.0 29.1751946751" Properties=species:S:1:pos:R:3:initial_magmoms:R:1 pbc="T T T"
Si      -1.34625448       1.34501644      -1.36519488       0.00000000
Si      -1.35545833      -1.37051029       1.34646441       0.00000000
Si       1.35777151       1.34781832       1.36729550       0.00000000
Si       1.34392501      -1.30305340      -1.42366197       0.00000000
Si      -2.76848553      -0.11508885      -2.58994913       0.00000000
Si       0.11411145       2.78241885      -2.57928852       0.00000000
Si      -2.70021413       2.67408497       0.03611889       0.00000000
Si       2.69223203      -2.68763825      -0.06132626       0.00000000
Si       0.00731421      -2.71019990       2.71052146       0.00000000
Si      -2.71068860      -0.01782126       2.71241785       0.00000000
