10
Lattice="16.290000149 0.0 0.0 0.0 16.290000149 0.0 0.0 0.0 29.1751946751" Properties=species:S:1:pos:R:3:initial_magmoms:R:1 pbc="T T T"
H        1.35811360       0.57296818       0.27503456       0.00000000
Si      -0.46680624       0.42481062      -2.21217996       0.00000000
Si      -1.36058968       1.35329176       1.32469971       0.00000000
Si      -0.45155880      -2.20999916       0.60938229       0.00000000
H        2.28824003      -1.19021257      -0.17367993       0.00000000
H        2.95495716      -0.26909451       1.44851924       0.00000000
Si       0.62260381      -2.12385764       2.70987961       0.00000000
Si       1.36405945       1.71613523      -2.84895776       0.00000000
Si      -2.76163232      -2.03623373       1.20974945       0.00000000
Si      -2.53747703      -0.17847324       2.64140543       0.00000000
