10
Lattice="16.290000149 0.0 0.0 0.0 16.290000149 0.0 0.0 0.0 29.1751946751" Properties=species:S:1:pos:R:3:initial_magmoms:R:1 pbc="T T T"
Si      -1.33682257      -1.44762715       1.25654646       0.00000000
Si       1.34405533      -1.36603054      -1.34979038       0.00000000
Si      -1.38758221       1.34227972      -1.34634771       0.00000000
Si       1.25972200       1.36329382       1.45820541       0.00000000
Si      -2.70488936      -0.07444530       2.50997117       0.00000000
Si       2.63700893       2.69228090       0.06780315       0.00000000
Si      -0.02772558       2.70497081      -2.68887347       0.00000000
Si       2.69186874      -0.01225008      -2.70713714       0.00000000
Si       2.68826494      -2.72380205       0.01849707       0.00000000
Si      -0.02717172      -2.71393031      -2.70494900       0.00000000
