10
Lattice="16.290000149 0.0 0.0 0.0 16.290000149 0.0 0.0 0.0 29.1751946751" Properties=species:S:1:pos:R:3:initial_magmoms:R:1 pbc="T T T"
Si       1.36358704       1.35048988      -1.34979038       0.00000000
Si       1.37441989      -1.35267274       1.34351771       0.00000000
Si      -1.35141841       1.36094806       1.36213149       0.00000000
Si      -1.36976095      -1.36182772      -1.35157007       0.00000000
Si      -0.00091224      -2.67188582       2.70859590       0.00000000
Si      -0.02528208       2.69926931      -2.68300925       0.00000000
Si       2.66970296      -2.72235224      -0.06260997       0.00000000
Si       2.68323995      -0.01756062      -2.73441595       0.00000000
Si       2.72507267       2.69345541       0.02727881       0.00000000
Si      -2.68996447       0.00970884       2.73298636       0.00000000
