10
Lattice="16.290000149 0.0 0.0 0.0 16.290000149 0.0 0.0 0.0 29.1751946751" Properties=species:S:1:pos:R:3:initial_magmoms:R:1 pbc="T T T"
Si      -1.19788516       1.33358086      -1.53826214       0.00000000
Si       1.34943103       1.46701225       1.27268034       0.00000000
Si      -1.61800426      -1.02257218       1.39116081       0.00000000
Si       1.78843025      -1.56245536      -0.63578584       0.00000000
H       -0.82849312      -1.72051724      -1.78248769       0.00000000
H       -0.18697662      -2.15629103      -1.72585864       0.00000000
H        1.44751312       0.68668867      -2.99214962       0.00000000
Si      -0.04641021      -2.30249378       2.50854159       0.00000000
Si       1.01830420      -3.42060681       0.64518025       0.00000000
Si       0.06208119       1.09239112      -3.49267926       0.00000000
