10
Lattice="16.290000149 0.0 0.0 0.0 16.290000149 0.0 0.0 0.0 29.1751946751" Properties=species:S:1:pos:R:3:initial_magmoms:R:1 pbc="T T T"
Si       1.25996635      -0.24118974      -1.95441712       0.00000000
Si      -0.35018613       2.11455605       0.93839096       0.00000000
Si      -2.07275591      -0.69196663      -0.88826798       0.00000000
Si       1.19788516      -1.33358086       1.53826214       0.00000000
H        0.36939204      -3.05409810      -0.24422555       0.00000000
H        2.64539828      -0.64689220      -1.45388748       0.00000000
H       -2.54097938       0.28976652       1.73618666       0.00000000
H       -1.26084601       2.03932883       2.15388792       0.00000000
H       -3.20769651      -0.63135154       0.11398749       0.00000000
Si       0.26608086      -2.24797115      -2.80172312       0.00000000
