10
Lattice="10.86 0.0 0.0 0.0 10.86 0.0 0.0 0.0 10.86" Properties=species:S:1:pos:R:3:initial_magmoms:R:1 pbc="T T T"
Si       1.12629060       1.44013374       0.96473724       0.00000000
Si      -1.69317174       0.77713074      -1.23028596       0.00000000
Si      -1.58870940      -1.27486626       0.96473724       0.00000000
Si       1.12629060      -1.27486626      -1.75026276       0.00000000
Si       2.48379060       0.08263374       2.32223724       0.00000000
Si      -0.23120940      -2.63236626       2.32223724       0.00000000
Si       2.49625788       2.52960894      -0.41831634       0.00000000
Si       2.48379060      -2.63236626      -0.39276276       0.00000000
Si      -0.23120940       2.79763374       2.32223724       0.00000000
Si      -2.94620940       0.08263374       2.32223724       0.00000000
