10
Lattice="10.86 0.0 0.0 0.0 10.86 0.0 0.0 0.0 10.86" Properties=species:S:1:pos:R:3:initial_magmoms:R:1 pbc="T T T"
Si      -1.13258940      -0.68774208      -1.78781664       0.00000000
Si       1.69317174      -0.77713074       1.23028596       0.00000000
Si      -0.83212578       2.02201254       0.68570040       0.00000000
Si       0.10446234      -2.05199700       2.19502320       0.00000000
Si      -2.61053766      -2.05199700      -0.51997680       0.00000000
Si      -2.61053766       0.66300300       2.19502320       0.00000000
Si       2.81946234      -2.05199700      -0.51997680       0.00000000
Si       2.81946234       0.66300300       2.19502320       0.00000000
Si      -1.25303766      -3.40949700       0.83752320       0.00000000
Si      -1.25303766      -0.69449700       3.55252320       0.00000000
