10
Lattice="10.86 0.0 0.0 0.0 10.86 0.0 0.0 0.0 10.86" Properties=species:S:1:pos:R:3:initial_magmoms:R:1 pbc="T T T"
Si       1.34503272      -1.08947520      -1.33194642       0.00000000
Si      -1.36996728      -1.08947520       1.38305358       0.00000000
Si       1.34503272       1.62552480       1.38305358       0.00000000
Si       0.13320876      -2.60929962      -2.38986246       0.00000000
Si      -2.49625788      -2.52960894       0.41831634       0.00000000
Si       2.70253272      -2.44697520       0.02555358       0.00000000
Si      -0.01246728      -2.44697520       2.74055358       0.00000000
Si       2.70253272       0.26802480      -2.68944642       0.00000000
Si       2.70253272       0.26802480       2.74055358       0.00000000
Si      -2.72746728       0.26802480       2.74055358       0.00000000
