10
Lattice="10.86 0.0 0.0 0.0 10.86 0.0 0.0 0.0 10.86" Properties=species:S:1:pos:R:3:initial_magmoms:R:1 pbc="T T T"
Si       1.34318652       1.22081604       1.42401750       0.00000000
Si       1.34318652      -1.49418396      -1.29098250       0.00000000
Si      -1.37181348      -1.49418396       1.42401750       0.00000000
Si      -2.81517264       2.17999296      -0.36246336       0.00000000
Si       2.70068652       2.57831604       0.06651750       0.00000000
Si      -0.24070104       2.66686848       2.61054852       0.00000000
Si       2.70068652      -0.13668396      -2.64848250       0.00000000
Si      -2.78216910      -0.04173498      -2.60520540       0.00000000
Si       0.09266838       2.64817842      -2.76645468       0.00000000
Si       2.70068652      -0.13668396       2.78151750       0.00000000
