10
Lattice="10.86 0.0 0.0 0.0 10.86 0.0 0.0 0.0 10.86" Properties=species:S:1:pos:R:3:initial_magmoms:R:1 pbc="T T T"
Si       1.35750000       1.35750000       1.35750000       0.00000000
Si       1.35750000      -1.35750000      -1.35750000       0.00000000
Si      -1.35750000       1.35750000      -1.35750000       0.00000000
Si      -1.35750000      -1.35750000       1.35750000       0.00000000
Si      -0.05285562      -2.62005102       2.75827710       0.00000000
Si       2.48861244       0.08855244      -2.88596898       0.00000000
Si      -2.66968122      -0.03710862      -2.72708718       0.00000000
Si      -2.75704992       0.08349168       2.66396886       0.00000000
Si       2.82198186       0.06986238       2.59702782       0.00000000
Si      -2.71500000      -2.71500000       0.00000000       0.00000000
