10
Lattice="10.86 0.0 0.0 0.0 10.86 0.0 0.0 0.0 10.86" Properties=species:S:1:pos:R:3:initial_magmoms:R:1 pbc="T T T"
Si      -1.38050148      -1.29089562       1.29272010       0.00000000
Si       1.33449852       1.42410438       1.29272010       0.00000000
Si      -1.38050148       1.42410438      -1.42227990       0.00000000
Si       1.34687892      -1.55400084      -1.35369900       0.00000000
Si       2.57469966       0.03987792       2.56702164       0.00000000
Si      -2.73800148      -2.64839562      -0.06477990       0.00000000
Si       0.24904152      -2.69609274       2.68207248       0.00000000
Si      -2.73800148       0.06660438       2.65022010       0.00000000
Si      -0.02300148       2.78160438       2.65022010       0.00000000
Si      -0.06523602      -2.67908598      -2.78873940       0.00000000
