10
Lattice="10.86 0.0 0.0 0.0 10.86 0.0 0.0 0.0 10.86" Properties=species:S:1:pos:R:3:initial_magmoms:R:1 pbc="T T T"
Si       1.47846954       1.17478050       1.14486120       0.00000000
Si      -0.99916344      -1.70578020       1.12179456       0.00000000
Si      -1.23653046       1.17478050      -1.57013880       0.00000000
Si       1.47846954      -1.54021950      -1.57013880       0.00000000
Si      -2.54576862      -0.15750258       2.39882196       0.00000000
Si       0.12096954       2.53228050       2.50236120       0.00000000
Si      -2.59403046       2.53228050      -0.21263880       0.00000000
Si       2.77300326      -0.31132362       2.41203858       0.00000000
Si       2.83596954       2.53228050      -0.21263880       0.00000000
Si      -2.35910694      -3.02171898      -0.16827570       0.00000000
