10
Lattice="10.86 0.0 0.0 0.0 10.86 0.0 0.0 0.0 10.86" Properties=species:S:1:pos:R:3:initial_magmoms:R:1 pbc="T T T"
Si       1.42046628      -1.22889588      -1.26717738       0.00000000
Si      -1.29453372       1.48610412      -1.26717738       0.00000000
Si       1.42046628       1.48610412       1.44782262       0.00000000
Si      -0.17567136      -2.43194496       2.53796028       0.00000000
Si       0.34921416      -2.30346030      -2.82026598       0.00000000
Si      -2.77300326       0.31132362      -2.41203858       0.00000000
Si       2.77796628      -2.58639588       0.09032262       0.00000000
Si       2.77796628       0.12860412      -2.62467738       0.00000000
Si      -2.67998736      -0.00060816       2.73958704       0.00000000
Si       0.06296628       2.84360412      -2.62467738       0.00000000
