10
Lattice="10.86 0.0 0.0 0.0 10.86 0.0 0.0 0.0 10.86" Properties=species:S:1:pos:R:3:initial_magmoms:R:1 pbc="T T T"
Si      -2.12629026      -1.15020432       0.53795010       0.00000000
Si       0.58870974      -1.15020432      -2.17704990       0.00000000
Si       1.94297346       0.25791414       1.71561936       0.00000000
Si       1.39970196       0.97684614      -2.71660728       0.00000000
Si      -0.76879026      -2.50770432       1.89545010       0.00000000
Si       1.94620974      -2.50770432      -0.81954990       0.00000000
Si      -0.58772148       2.77915002       1.90495260       0.00000000
Si      -2.12629026       1.56479568      -2.17704990       0.00000000
Si       0.58870974      -1.15020432       3.25295010       0.00000000
Si       3.30370974      -1.15020432       0.53795010       0.00000000
