10
Lattice="10.86 0.0 0.0 0.0 10.86 0.0 0.0 0.0 10.86" Properties=species:S:1:pos:R:3:initial_magmoms:R:1 pbc="T T T"
Si      -1.74888354      -1.00473462      -0.44839854       0.00000000
Si       1.61443674       1.16668980      -1.31030244       0.00000000
Si       1.56458934      -1.62693660       1.37439816       0.00000000
Si       0.15512424       2.29821492      -2.62384116       0.00000000
Si      -2.63429934       2.37959976       0.02224128       0.00000000
Si       2.87012424       2.29821492       0.09115884       0.00000000
Si      -2.55987576      -0.41678508      -2.62384116       0.00000000
Si       2.87012424      -0.41678508      -2.62384116       0.00000000
Si       1.61774904       3.40275294       1.43966676       0.00000000
Si       2.87012424      -0.41678508       2.80615884       0.00000000
