10
Lattice="16.28999089631971 0.0 0.0 0.0 16.28999089631971 0.0 0.0 0.0 34.28971787722196" Properties=species:S:1:pos:R:3:initial_magmoms:R:1 pbc="T T T"
Si       1.35773892       1.35457866       1.35667345       0.00000000
Si      -1.35749457       1.35695700      -1.35708492       0.00000000
Si       1.35749457      -1.35797350      -1.35722208       0.00000000
Si      -1.35923760      -1.35932394       1.35687918       0.00000000
Si       2.71265967       0.00364896       2.71307257       0.00000000
Si      -2.71327869      -0.00055386      -2.71437558       0.00000000
Si       2.71358820      -0.00021177      -2.71495851       0.00000000
Si      -2.71440270       2.71438641       0.00048006       0.00000000
Si      -0.00048870       2.71433754      -2.71454703       0.00000000
Si       2.71463076       2.71441899      -0.00010287       0.00000000
