10
Lattice="16.28999089631971 0.0 0.0 0.0 16.28999089631971 0.0 0.0 0.0 34.28971787722196" Properties=species:S:1:pos:R:3:initial_magmoms:R:1 pbc="T T T"
Si      -2.09595285      -0.29212857       1.02354865       0.00000000
Si       0.81655254       1.85140737       1.22184620       0.00000000
Si       0.96370011      -2.18966564       0.11874536       0.00000000
Si       0.36061173       1.04155002      -2.17290635       0.00000000
Si      -0.00374670       1.19369862       3.31370296       0.00000000
Si      -3.40501725      -1.11259071      -0.73476049       0.00000000
Si       3.11909517       1.60832799       1.02913788       0.00000000
Si      -2.85459444       2.15816436       0.99111056       0.00000000
Si      -0.82992663       3.13098687      -1.97968368       0.00000000
Si      -2.86827804       0.26505459      -2.59820196       0.00000000
