10
Lattice="16.28999089631971 0.0 0.0 0.0 16.28999089631971 0.0 0.0 0.0 34.28971787722196" Properties=species:S:1:pos:R:3:initial_magmoms:R:1 pbc="T T T"
Si       1.35492075      -1.35092970       1.35639913       0.00000000
Si      -1.35773892      -1.35457866      -1.35667345       0.00000000
Si       1.35689184       1.35984033      -1.35677632       0.00000000
Si      -1.35923760       1.36199061       1.36233125       0.00000000
Si       0.01122381      -2.68730591       2.73512088       0.00000000
Si       2.71332756      -2.71263361      -0.00006858       0.00000000
Si      -0.00024435      -2.71255216      -2.71389553       0.00000000
Si      -2.71523349       0.00237834      -2.71375837       0.00000000
Si       2.71516833       0.00211770      -2.71420414       0.00000000
Si       2.71261080       2.71740006      -0.00092582       0.00000000
