10
Lattice="16.28999089631971 0.0 0.0 0.0 16.28999089631971 0.0 0.0 0.0 34.28971787722196" Properties=species:S:1:pos:R:3:initial_magmoms:R:1 pbc="T T T"
Si      -1.34633592      -1.34462547      -1.38081342       0.00000000
Si       1.36475991       1.36998900      -1.37920180       0.00000000
Si       1.43835813      -1.26096003       1.49873583       0.00000000
Si      -1.54095255       1.25851653       1.57376177       0.00000000
Si       0.38307564       2.23565589       2.65508863       0.00000000
Si       2.23311465       0.56205387       2.93938484       0.00000000
Si       2.73522132      -2.67930752      -0.00641218       0.00000000
Si      -2.69933934      -2.72096757       0.00562352       0.00000000
Si      -2.71896064       2.72559393       0.00274318       0.00000000
Si       0.00702099      -2.70590421      -2.74132732       0.00000000
