10
Lattice="16.28999089631971 0.0 0.0 0.0 16.28999089631971 0.0 0.0 0.0 34.28971787722196" Properties=species:S:1:pos:R:3:initial_magmoms:R:1 pbc="T T T"
Si       0.35868951       2.12722965       0.90926096       0.00000000
Si      -1.66855212      -0.18969705      -1.65869745       0.00000000
Si       2.18259936      -0.28779543      -0.91731905       0.00000000
Si      -0.35461701      -1.68370182       1.73026013       0.00000000
Si      -1.98667953      -2.49694749      -1.35663916       0.00000000
Si      -0.44043273       0.88997157      -3.40641106       0.00000000
Si       3.36505788      -0.11839572       1.12295460       0.00000000
Si       2.13716655       1.58700438       2.38821161       0.00000000
Si      -2.39603094      -2.62226646       0.92743452       0.00000000
Si       1.34838846       3.37944195      -0.84311605       0.00000000
