10
Lattice="16.28999089631971 0.0 0.0 0.0 16.28999089631971 0.0 0.0 0.0 34.28971787722196" Properties=species:S:1:pos:R:3:initial_magmoms:R:1 pbc="T T T"
Si       0.19101654      -1.19470860      -1.96521341       0.00000000
Si      -1.29674916       1.90086381      -0.48279950       0.00000000
Si      -0.98969895      -1.25221230       1.75237701       0.00000000
Si       2.17722366       0.41376600       0.91694186       0.00000000
Si       2.23316352      -2.30185845      -1.41808637       0.00000000
Si      -2.41463412       2.15383122       1.71644137       0.00000000
Si      -1.34838846      -3.37944195       0.84311605       0.00000000
Si       0.31506489       3.47755662      -1.33219057       0.00000000
Si       0.65668248       0.34461495      -3.67603126       0.00000000
Si       0.83421090      -3.66723738      -0.07420299       0.00000000
