10
Lattice="16.28999089631971 0.0 0.0 0.0 16.28999089631971 0.0 0.0 0.0 34.28971787722196" Properties=species:S:1:pos:R:3:initial_magmoms:R:1 pbc="T T T"
Si      -0.35868951      -2.12722965      -0.90926096       0.00000000
Si       0.98969895       1.25221230      -1.75237701       0.00000000
Si      -1.88349867       1.19990511       0.80700896       0.00000000
Si       1.77847704      -0.54022527       1.47895065       0.00000000
Si       1.82390985      -2.41502508      -1.82658000       0.00000000
Si       3.16692261       1.66597830      -0.83543515       0.00000000
Si      -1.42493517       3.40604352      -0.03593564       0.00000000
Si       3.00636837      -2.24562537       0.21369364       0.00000000
Si      -3.82256253       0.26215497      -0.10670966       0.00000000
Si      -0.30705021       3.15307611      -2.23517651       0.00000000
