10
Lattice="16.28999089631971 0.0 0.0 0.0 16.28999089631971 0.0 0.0 0.0 34.28971787722196" Properties=species:S:1:pos:R:3:initial_magmoms:R:1 pbc="T T T"
Si       0.40935141       0.12531897      -2.28407367       0.00000000
Si      -0.77424741      -2.14660565       0.68284582       0.00000000
Si       2.04141393       0.93856464       0.80282561       0.00000000
Si      -1.97475525       1.28039400      -0.42406118       0.00000000
Si      -1.06740225      -1.58565557      -2.98461300       0.00000000
Si      -1.56406806       2.99297799       1.13128700       0.00000000
Si       0.72747882       2.43256941      -2.58613197       0.00000000
Si      -1.36544409       0.05116689       3.37863637       0.00000000
Si       2.39603094       2.62226646      -0.92743452       0.00000000
Si      -1.11073365      -3.29061977      -1.36949781       0.00000000
