10
Lattice="16.28999089631971 0.0 0.0 0.0 16.28999089631971 0.0 0.0 0.0 34.28971787722196" Properties=species:S:1:pos:R:3:initial_magmoms:R:1 pbc="T T T"
Si      -0.88058853       0.32488776      -2.10407625       0.00000000
Si      -1.80009387      -0.87755859       1.22462195       0.00000000
Si       0.83872323       1.82089620       1.24734576       0.00000000
Si       1.75975983      -1.71532071      -0.09795519       0.00000000
Si       0.71796546       2.35462176      -2.41138088       0.00000000
Si      -0.48832533      -2.21759028       2.63286031       0.00000000
Si       2.22176052       0.52230627       2.65043723       0.00000000
Si       2.49417819       2.82111849      -0.09781803       0.00000000
Si       3.51233577      -0.80718579       1.23688739       0.00000000
Si      -2.69197137       1.88900469      -1.97120352       0.00000000
