10
Lattice="16.28999089631971 0.0 0.0 0.0 16.28999089631971 0.0 0.0 0.0 34.28971787722196" Properties=species:S:1:pos:R:3:initial_magmoms:R:1 pbc="T T T"
Si       0.43974855      -1.52774136       1.79513631       0.00000000
Si       0.54783270       2.34476631      -0.07742623       0.00000000
Si       1.56802653      -1.22494284      -1.57564771       0.00000000
Si      -2.49419448       0.17049114       1.03894474       0.00000000
Si       1.95877476      -2.66260050       0.33802823       0.00000000
Si      -1.30966713       2.17639287      -2.32789596       0.00000000
Si       1.49683923       2.47705740       2.11238496       0.00000000
Si      -1.51573563       3.48617959       0.02650597       0.00000000
Si       0.22305897      -2.33096868      -3.16696582       0.00000000
Si      -2.45710215       0.34458237      -3.21380560       0.00000000
