10
Lattice="16.28999089631971 0.0 0.0 0.0 16.28999089631971 0.0 0.0 0.0 34.28971787722196" Properties=species:S:1:pos:R:3:initial_magmoms:R:1 pbc="T T T"
Si       2.05187211       1.22191846      -0.28950825       0.00000000
Si      -1.11953025       1.43306781       1.59725024       0.00000000
Si       1.07341326      -2.09376999       0.72293053       0.00000000
Si       0.63930105       1.71915768      -2.34120038       0.00000000
Si      -2.41803873      -1.12037733      -2.02696923       0.00000000
Si      -1.16286165      -0.27189639       3.21236544       0.00000000
Si       2.25794061      -0.08786826      -2.64391017       0.00000000
Si       0.57181158      -1.83725136       3.13984264       0.00000000
Si      -0.71097705      -2.96362341      -2.10614423       0.00000000
Si       2.44765395       2.32076041       1.71990463       0.00000000
