10
Lattice="16.28999089631971 0.0 0.0 0.0 16.28999089631971 0.0 0.0 0.0 34.28971787722196" Properties=species:S:1:pos:R:3:initial_magmoms:R:1 pbc="T T T"
Si      -0.16303032       2.14627266       0.88556675       0.00000000
Si      -0.38152809       0.21727602      -2.29761812       0.00000000
Si       2.21109057      -0.41690997       0.64416700       0.00000000
Si      -1.52899569      -1.45508633       1.12556062       0.00000000
Si       0.11893329       1.21396338       3.08593917       0.00000000
Si       1.77262893      -0.59106636       2.95200346       0.00000000
Si       2.59040322      -2.25303392      -0.76572412       0.00000000
Si       0.71728128      -3.00464882      -2.09479433       0.00000000
Si      -2.82181896      -2.31256817      -0.81633577       0.00000000
Si      -2.42670501      -0.88477506      -2.70916354       0.00000000
