10
Lattice="16.28999089631971 0.0 0.0 0.0 16.28999089631971 0.0 0.0 0.0 34.28971787722196" Properties=species:S:1:pos:R:3:initial_magmoms:R:1 pbc="T T T"
Si      -0.43740279      -1.84905414      -1.33417938       0.00000000
Si      -0.60676992       2.32360397      -0.15276078       0.00000000
Si       2.29791627       0.69530444      -0.41010525       0.00000000
Si      -0.30050163      -1.65391623       1.79986830       0.00000000
Si       1.91721897       1.62507248       1.98280404       0.00000000
Si      -2.76216498      -1.47438966      -1.06315330       0.00000000
Si       0.90549594      -0.11393552       3.27748649       0.00000000
Si       0.37538676      -3.43993554       0.13736469       0.00000000
Si       3.50138889      -1.25789914       0.05606372       0.00000000
Si      -2.90931255       2.56668335       0.03994754       0.00000000
