10
Lattice="16.28999089631971 0.0 0.0 0.0 16.28999089631971 0.0 0.0 0.0 34.28971787722196" Properties=species:S:1:pos:R:3:initial_magmoms:R:1 pbc="T T T"
Si       1.49385816       1.25395533       1.30050686       0.00000000
Si      -1.39895262      -1.36537893       1.34388337       0.00000000
Si      -2.04214698       1.10714985      -0.54712704       0.00000000
Si       1.06797240       0.01993896      -2.15524713       0.00000000
Si       2.76076404       1.23878934      -0.83831549       0.00000000
Si       2.53423530      -2.04947748      -0.08874184       0.00000000
Si      -2.23316352       2.30185845       1.41808637       0.00000000
Si      -1.47590658      -3.18466242      -0.10406935       0.00000000
Si       1.97196966      -0.38920068       2.88860174       0.00000000
Si      -0.05593986       2.71562445       2.33502822       0.00000000
