10
Lattice="16.28999089631971 0.0 0.0 0.0 16.28999089631971 0.0 0.0 0.0 34.28971787722196" Properties=species:S:1:pos:R:3:initial_magmoms:R:1 pbc="T T T"
Si      -1.34284986      -1.36484136      -1.38283652       0.00000000
Si       1.36855548       1.35319401      -1.38029907       0.00000000
Si       1.52754588      -1.21858974       1.33966574       0.00000000
Si      -1.58091192       1.28673081       1.51276033       0.00000000
Si       2.22961230       0.67409649       2.61335802       0.00000000
Si       0.18568971      -2.49168582       2.73193193       0.00000000
Si      -2.69404020      -2.71567332      -0.00312037       0.00000000
Si      -2.71982727       2.71280628       0.00308608       0.00000000
Si       2.71666701       2.71915938      -0.02300841       0.00000000
Si      -2.69961138      -0.00965997      -2.73944138       0.00000000
