10
Lattice="16.28999089631971 0.0 0.0 0.0 16.28999089631971 0.0 0.0 0.0 34.28971787722196" Properties=species:S:1:pos:R:3:initial_magmoms:R:1 pbc="T T T"
Si       1.35628911       1.35842310       1.35855938       0.00000000
Si      -1.35840681      -1.35720135       1.35790788       0.00000000
Si      -1.35876519       1.35705474      -1.35962236       0.00000000
Si       1.35940050      -1.35940050      -1.35753069       0.00000000
Si      -0.01229895      -2.70738171      -2.70348516       0.00000000
Si       2.71257822      -2.71511946       0.00089153       0.00000000
Si       2.71402803       2.71423242       0.00120014       0.00000000
Si       2.71357191       0.00097740       2.71526712       0.00000000
Si      -0.00122175      -2.71427238       2.71536999       0.00000000
Si      -2.71564074      -2.71518462      -0.00037719       0.00000000
