10
Lattice="16.28999089631971 0.0 0.0 0.0 16.28999089631971 0.0 0.0 0.0 34.28971787722196" Properties=species:S:1:pos:R:3:initial_magmoms:R:1 pbc="T T T"
Si      -1.65545496      -1.00022229       1.34516379       0.00000000
Si       1.01193480       1.76580342       1.31692962       0.00000000
Si       1.84751406      -1.65799620       0.13270887       0.00000000
Si      -1.77621273      -0.46649673      -2.31356285       0.00000000
Si       2.21975685      -0.99676881      -2.27608417       0.00000000
Si      -0.27241767      -2.29881222       2.74825526       0.00000000
Si       2.46453039       0.41544387       2.70985761       0.00000000
Si       0.14281443      -0.47640105      -3.69571357       0.00000000
Si      -2.49417819      -2.82111849       0.09781803       0.00000000
Si       2.64028320       2.96636013      -0.19833184       0.00000000
