10
Lattice="16.28999089631971 0.0 0.0 0.0 16.28999089631971 0.0 0.0 0.0 34.28971787722196" Properties=species:S:1:pos:R:3:initial_magmoms:R:1 pbc="T T T"
Si       1.35817453       1.33967331       1.38021678       0.00000000
Si      -1.35550719      -1.37493790       1.37747360       0.00000000
Si       1.36559789      -1.38899128      -1.36967269       0.00000000
Si      -1.26169308       1.44721989      -1.57784225       0.00000000
Si      -0.20082312      -2.63257738      -2.61738741       0.00000000
Si      -2.68345170       2.69125461       0.01483374       0.00000000
Si       2.70025388       2.71469592       0.01665453       0.00000000
Si       0.00194972       2.70154989       2.74103928       0.00000000
Si      -2.72119563      -2.73356632       0.01117503       0.00000000
Si      -2.71458189      -0.01695789       2.74021633       0.00000000
