10
Lattice="16.28999089631971 0.0 0.0 0.0 16.28999089631971 0.0 0.0 0.0 34.28971787722196" Properties=species:S:1:pos:R:3:initial_magmoms:R:1 pbc="T T T"
Si      -1.35317772      -1.35392767       1.37161348       0.00000000
Si       1.36568844       1.35862842       1.36629858       0.00000000
Si       1.25177247      -1.46445532      -1.39563345       0.00000000
Si      -1.31517315       1.38481785      -1.44348134       0.00000000
Si       2.52037251       0.10098894      -2.62856243       0.00000000
Si      -2.69692353      -2.70607912      -0.01291009       0.00000000
Si      -2.70730026       2.69583868       0.00510231       0.00000000
Si       2.71824714      -2.70169711       0.00992688       0.00000000
Si      -2.70754461       0.00127893       2.73017287       0.00000000
Si       0.00706986      -2.71109644       2.72897273       0.00000000
