10
Lattice="16.28999089631971 0.0 0.0 0.0 16.28999089631971 0.0 0.0 0.0 34.28971787722196" Properties=species:S:1:pos:R:3:initial_magmoms:R:1 pbc="T T T"
Si      -1.34677575      -1.34978850      -1.39692960       0.00000000
Si       1.36607940       1.36696720      -1.39422071       0.00000000
Si      -1.57379319       1.16643730       1.49146640       0.00000000
Si       1.18988676      -1.51909041       1.57643637       0.00000000
Si       2.71699281      -2.70679431      -0.00713227       0.00000000
Si      -2.69941590      -2.73636066      -0.03185517       0.00000000
Si       2.72029968       2.71586065       0.00298321       0.00000000
Si      -2.72497491       2.71745707      -0.00360042       0.00000000
Si       0.00653229      -2.70845589      -2.75826645       0.00000000
Si      -2.70930393       0.00692488      -2.75795784       0.00000000
