10
Lattice="16.28999089631971 0.0 0.0 0.0 16.28999089631971 0.0 0.0 0.0 34.28971787722196" Properties=species:S:1:pos:R:3:initial_magmoms:R:1 pbc="T T T"
Si      -1.35422028      -1.34889345      -1.39720392       0.00000000
Si       1.36011540       1.36389654      -1.39950133       0.00000000
Si      -1.50522858       1.36065483       1.47493875       0.00000000
Si       1.30530141      -1.56799395       1.55428520       0.00000000
Si       2.70410157       2.72129337      -0.01659623       0.00000000
Si      -2.70769122       2.72096757      -0.04131913       0.00000000
Si      -2.72029968      -2.71586065      -0.00298321       0.00000000
Si       2.72372288      -2.72526813      -0.01371589       0.00000000
Si       2.33467370      -0.04175127       3.07702384       0.00000000
Si       0.00114030      -2.70936909      -2.76080389       0.00000000
