10
Lattice="16.28999089631971 0.0 0.0 0.0 16.28999089631971 0.0 0.0 0.0 34.28971787722196" Properties=species:S:1:pos:R:3:initial_magmoms:R:1 pbc="T T T"
Si      -1.35760860       1.35728280       1.35783930       0.00000000
Si       1.35716399      -1.35770634       1.35804504       0.00000000
Si       1.35818996       1.35967743      -1.35667345       0.00000000
Si      -1.35834165      -1.35883035      -1.35749640       0.00000000
Si      -0.00239463       2.71318095      -2.71314115       0.00000000
Si       2.71397983      -0.00123804       2.71482135       0.00000000
Si       2.71470148       2.71453302       0.00041148       0.00000000
Si      -2.71494027      -0.00040725       2.71440987       0.00000000
Si      -2.71503801       2.71472850       0.00048006       0.00000000
Si       0.00026064       2.71490769       2.71509567       0.00000000
