10
Lattice="16.28999089631971 0.0 0.0 0.0 16.28999089631971 0.0 0.0 0.0 34.28971787722196" Properties=species:S:1:pos:R:3:initial_magmoms:R:1 pbc="T T T"
Si      -1.69279164      -1.21885038      -1.31693164       0.00000000
Si      -1.26690588       0.01516599       2.13882235       0.00000000
Si       2.60768691       0.21823713      -0.76270662       0.00000000
Si      -2.76076404      -1.23878934       0.83831549       0.00000000
Si       1.54595358       0.32123880      -2.85198030       0.00000000
Si      -0.22652874      -3.28826682       0.74957365       0.00000000
Si      -0.79166142       3.38669100      -0.38915423       0.00000000
Si       2.68358202      -1.12816395       2.37020949       0.00000000
Si       1.00129743      -2.76594426       2.65347701       0.00000000
Si      -0.84644469      -2.99380878      -2.69719643       0.00000000
