10
Lattice="16.28999089631971 0.0 0.0 0.0 16.28999089631971 0.0 0.0 0.0 34.28971787722196" Properties=species:S:1:pos:R:3:initial_magmoms:R:1 pbc="T T T"
Si       1.89433804       1.41043707      -0.02664313       0.00000000
Si      -0.17088536      -1.44039438      -1.88422105       0.00000000
Si      -2.05423483       1.12034475       0.61831254       0.00000000
Si       0.83907184      -1.40973660       1.85099430       0.00000000
Si       3.54130591      -0.25756119      -0.31107649       0.00000000
Si      -0.83332798      -3.09728286       1.55973727       0.00000000
Si       1.74598501       2.32152048       2.15017225       0.00000000
Si       1.24975903       0.30284739       3.40634248       0.00000000
Si      -0.51265607      -3.51342883      -0.81273535       0.00000000
Si      -3.73651942      -0.51743556       0.90158006       0.00000000
