10
Lattice="16.28999089631971 0.0 0.0 0.0 16.28999089631971 0.0 0.0 0.0 34.28971787722196" Properties=species:S:1:pos:R:3:initial_magmoms:R:1 pbc="T T T"
Si      -1.32273171       1.35653346      -1.32265803       0.00000000
Si       1.06574067       1.58104224       1.31576579       0.00000000
Si      -1.80978642      -0.68852943       1.31370841       0.00000000
Si       1.39784490      -1.35868374      -1.33003032       0.00000000
Si      -2.51185284      -2.58121566       0.04001612       0.00000000
Si      -2.77272090       2.52136620       0.21873423       0.00000000
Si       2.65375503      -2.68985367       0.10489231       0.00000000
Si      -2.67084324      -0.00943191      -2.67994869       0.00000000
Si       0.04725729       2.70565497      -2.67892000       0.00000000
Si       2.77220016       2.61990441       0.06933385       0.00000000
