10
Lattice="16.28999089631971 0.0 0.0 0.0 16.28999089631971 0.0 0.0 0.0 34.28971787722196" Properties=species:S:1:pos:R:3:initial_magmoms:R:1 pbc="T T T"
Si      -1.78997778       0.17078436       1.47535023       0.00000000
Si      -0.81824670       0.58500648      -2.11115053       0.00000000
Si       1.22345623       2.10711150       0.30747607       0.00000000
Si       0.89237485      -2.31422256       0.26142496       0.00000000
Si       1.33475766      -1.96483464       2.64586469       0.00000000
Si      -0.52978338      -0.59033331       3.53630058       0.00000000
Si      -3.40040718      -1.42263828       0.43493102       0.00000000
Si       0.88821279       1.62386865      -3.35758247       0.00000000
Si       2.06852116       1.83974373       2.69496759       0.00000000
Si       3.02203025      -0.32413842       2.43580576       0.00000000
