10
Lattice="16.28999089631971 0.0 0.0 0.0 16.28999089631971 0.0 0.0 0.0 34.28971787722196" Properties=species:S:1:pos:R:3:initial_magmoms:R:1 pbc="T T T"
Si       1.80698454      -1.44032922      -0.22178602       0.00000000
Si      -1.29067299      -1.39106826       1.36901775       0.00000000
Si      -1.19182527      -0.10355553      -2.06725967       0.00000000
Si       0.89575452       2.13876297       0.67111873       0.00000000
Si      -2.87529903       1.45560924      -1.29882666       0.00000000
Si      -1.73915298      -3.22291134      -0.09350811       0.00000000
Si       1.74879666       2.89781181      -1.48529425       0.00000000
Si       3.50941986      -0.42608124      -1.46111999       0.00000000
Si       2.72966643      -1.99589967       1.86752195       0.00000000
Si       2.39495580       1.09416672      -2.87769760       0.00000000
