10
Lattice="16.28999089631971 0.0 0.0 0.0 16.28999089631971 0.0 0.0 0.0 34.28971787722196" Properties=species:S:1:pos:R:3:initial_magmoms:R:1 pbc="T T T"
Si       1.93906386       0.93775014       0.91371862       0.00000000
Si       0.14835303      -0.91108341      -2.17681538       0.00000000
Si      -1.89868747       1.47442419      -0.17131153       0.00000000
Si      -0.49622598      -2.01867309       1.25617023       0.00000000
Si      -1.74598501      -2.32152048      -2.15017225       0.00000000
Si       1.39147551       0.83075742       3.26006246       0.00000000
Si      -3.60172619       0.02212182       0.56101439       0.00000000
Si      -2.67730711      -1.64820591       2.05416099       0.00000000
Si       3.82256253      -0.26215497       0.10670966       0.00000000
Si      -0.90691317      -3.73125708      -0.29917796       0.00000000
