10
Lattice="16.28999089631971 0.0 0.0 0.0 16.28999089631971 0.0 0.0 0.0 34.28971787722196" Properties=species:S:1:pos:R:3:initial_magmoms:R:1 pbc="T T T"
Si       1.11446406      -1.52024796       1.41657762       0.00000000
Si      -0.64615914       1.80364509       1.39240335       0.00000000
Si       1.78851561       0.88226640      -1.31453136       0.00000000
Si      -2.05700346      -0.78216435      -1.03771031       0.00000000
Si       0.69017472       0.44018838      -3.32277839       0.00000000
Si       1.70123379      -2.69030979      -1.56302908       0.00000000
Si       3.07036268      -0.31384314       1.89649678       0.00000000
Si      -0.58797126      -2.53449594       2.65591158       0.00000000
Si       3.34468628      -0.96518250      -1.44788415       0.00000000
Si      -2.11494699       3.17072877       0.14429121       0.00000000
