10
Lattice="16.28999089631971 0.0 0.0 0.0 16.28999089631971 0.0 0.0 0.0 34.28971787722196" Properties=species:S:1:pos:R:3:initial_magmoms:R:1 pbc="T T T"
Si      -1.35874813      -1.32416523      -1.36010242       0.00000000
Si      -1.34848307       1.30474755       1.39185472       0.00000000
Si       1.36102298       1.38761478      -1.35989668       0.00000000
Si       1.21047080      -1.48406787       1.47840201       0.00000000
Si       2.04735326       0.24055443       2.91246739       0.00000000
Si       0.34029158       2.08380051       2.99164240       0.00000000
Si       2.70652811      -2.68688889       0.02136251       0.00000000
Si      -2.72283833      -2.67384060      -0.00750945       0.00000000
Si      -0.00209652      -2.68617213      -2.71639868       0.00000000
Si       2.71328846       0.02849121      -2.71698160       0.00000000
