10
Lattice="16.28999089631971 0.0 0.0 0.0 16.28999089631971 0.0 0.0 0.0 34.28971787722196" Properties=species:S:1:pos:R:3:initial_magmoms:R:1 pbc="T T T"
Si       0.83688246       1.72462230       1.43406538       0.00000000
Si       1.49605731      -1.20282102      -1.45703951       0.00000000
Si      -1.21047080       1.48406787      -1.47840201       0.00000000
Si      -1.14613345      -1.52847441       1.49115779       0.00000000
Si      -2.67739901      -2.52094266      -0.05098884       0.00000000
Si      -2.55895388       2.78881542      -0.08654730       0.00000000
Si       0.14876028      -2.56036446      -2.83212654       0.00000000
Si       2.80841229      -2.59613730      -0.02815187       0.00000000
Si      -2.56921893       0.15990264      -2.83850443       0.00000000
Si       2.65836510       2.76856695       0.01038979       0.00000000
