10
Lattice="16.28999089631971 0.0 0.0 0.0 16.28999089631971 0.0 0.0 0.0 34.28971787722196" Properties=species:S:1:pos:R:3:initial_magmoms:R:1 pbc="T T T"
Si      -1.55000979       0.92426202       1.43509407       0.00000000
Si      -1.27568619       0.27292266      -1.90928685       0.00000000
Si       2.06522991       1.04746329      -0.06319599       0.00000000
Si      -0.24941619      -2.19853098       0.73705790       0.00000000
Si      -2.48610812      -2.24321445       0.11919113       0.00000000
Si       0.38040408      -0.18726984      -3.51212632       0.00000000
Si      -0.92593989      -0.04815324       3.42088133       0.00000000
Si      -3.50590841      -0.28214280       0.95517491       0.00000000
Si       2.70671382       1.16690157       2.23531367       0.00000000
Si      -1.43521416       3.23661123       1.21186789       0.00000000
