10
Lattice="16.28999089631971 0.0 0.0 0.0 16.28999089631971 0.0 0.0 0.0 34.28971787722196" Properties=species:S:1:pos:R:3:initial_magmoms:R:1 pbc="T T T"
Si      -2.09087037       0.82308809       0.57743917       0.00000000
Si      -0.39614022      -1.09913191      -2.00975578       0.00000000
Si       0.91300563      -1.44430791       1.60208509       0.00000000
Si       2.00160117       1.21233764      -0.43109057       0.00000000
Si       2.61708624      -2.10786477       0.07660327       0.00000000
Si       1.66778649      -2.24013957      -2.11289931       0.00000000
Si      -1.77197733       3.13028966       0.27592951       0.00000000
Si      -3.56724936      -0.88753459      -0.12275726       0.00000000
Si       1.16014122      -0.05582909       3.55200528       0.00000000
Si      -2.44768653      -2.32087281      -1.72011037       0.00000000
