10
Lattice="16.28999089631971 0.0 0.0 0.0 16.28999089631971 0.0 0.0 0.0 34.28971787722196" Properties=species:S:1:pos:R:3:initial_magmoms:R:1 pbc="T T T"
Si      -1.99428274       0.98676675       0.78910972       0.00000000
Si       0.49951982      -1.62871672       1.66120060       0.00000000
Si       1.67174007       1.68766029       0.29156563       0.00000000
Si       0.31959351      -0.41698002      -2.37154679       0.00000000
Si       0.05058045      -0.03000618       3.39471826       0.00000000
Si       0.83095453       3.09751092      -1.55939437       0.00000000
Si      -3.31422886      -0.88465940       1.18820797       0.00000000
Si       2.57914194      -1.17779306      -2.26867758       0.00000000
Si       2.87232936      -1.73906243       1.39881553       0.00000000
Si      -1.38800152       1.82452887       2.90965564       0.00000000
