10
Lattice="16.28999089631971 0.0 0.0 0.0 16.28999089631971 0.0 0.0 0.0 34.28971787722196" Properties=species:S:1:pos:R:3:initial_magmoms:R:1 pbc="T T T"
Si       0.35782614       2.12690385       0.90939812       0.00000000
Si      -1.66904082      -0.18984366      -1.65787450       0.00000000
Si       2.18468448      -0.28722528      -0.91803913       0.00000000
Si      -0.35552925      -1.68371811       1.73077448       0.00000000
Si      -1.98793386      -2.49704523      -1.35636484       0.00000000
Si      -0.44049789       0.88922223      -3.40551952       0.00000000
Si       3.36489498      -0.11877039       1.12261170       0.00000000
Si       2.13641721       1.58654826       2.38862308       0.00000000
Si      -2.39717124      -2.62216872       0.92781170       0.00000000
Si       1.34812782       3.38040306      -0.84174446       0.00000000
