10
Lattice="16.28999089631971 0.0 0.0 0.0 16.28999089631971 0.0 0.0 0.0 34.28971787722196" Properties=species:S:1:pos:R:3:initial_magmoms:R:1 pbc="T T T"
Si       2.13537465       0.79131933      -0.54808716       0.00000000
Si      -1.28257686       1.68275700      -1.02649757       0.00000000
Si       0.09694179      -2.07466182      -1.16657114       0.00000000
Si       0.11059281      -0.18178011       2.42277566       0.00000000
Si      -0.43974855      -3.45231689       0.69704177       0.00000000
Si      -2.12735997      -0.94693770       2.70528880       0.00000000
Si       3.32565237      -1.29824784      -0.74134411       0.00000000
Si       0.86908779      -2.63186127       2.45517946       0.00000000
Si       3.07576377       1.55479905       1.50473653       0.00000000
Si      -2.64852594      -2.52894105       1.10279223       0.00000000
