10
Lattice="16.28999089631971 0.0 0.0 0.0 16.28999089631971 0.0 0.0 0.0 34.28971787722196" Properties=species:S:1:pos:R:3:initial_magmoms:R:1 pbc="T T T"
Si       1.65529206       1.00023858      -1.34511579       0.00000000
Si       1.38279294      -1.29850848       1.40318062       0.00000000
Si      -0.83878839      -1.82099394      -1.24726038       0.00000000
Si      -1.32110271       1.41649695       1.37451440       0.00000000
Si      -0.12083922       0.53367669      -3.65874721       0.00000000
Si       2.67362883      -2.62800054      -0.01065039       0.00000000
Si       3.50282241      -0.65774133      -1.21270730       0.00000000
Si      -2.63902887      -2.69837334      -0.02258665       0.00000000
Si      -2.54764197       2.84866488      -0.12235264       0.00000000
Si       0.03888423      -2.66263308       2.74827099       0.00000000
