10
Lattice="16.28999089631971 0.0 0.0 0.0 16.28999089631971 0.0 0.0 0.0 34.28971787722196" Properties=species:S:1:pos:R:3:initial_magmoms:R:1 pbc="T T T"
Si       1.89179028      -0.90678285       1.07251440       0.00000000
Si      -1.19855304      -1.26693846      -1.63582620       0.00000000
Si       1.33349940       1.42267086      -1.54711865       0.00000000
Si      -1.31978322       0.10728594       2.17242629       0.00000000
Si       2.67103872       2.53423530       0.05232614       0.00000000
Si      -2.13068313      -3.07724616      -0.40564759       0.00000000
Si       3.09708738       1.09085985       1.94944013       0.00000000
Si      -2.40484383      -2.12962428       2.19231434       0.00000000
Si       3.10045941      -2.35644624      -0.33216468       0.00000000
Si      -2.51041932       0.12566106      -3.06419948       0.00000000
