10
Lattice="16.28999089631971 0.0 0.0 0.0 16.28999089631971 0.0 0.0 0.0 34.28971787722196" Properties=species:S:1:pos:R:3:initial_magmoms:R:1 pbc="T T T"
Si      -1.35474156       1.35788553       1.36041103       0.00000000
Si       1.36179513      -1.35865116       1.35883370       0.00000000
Si      -1.35239580      -1.35031068      -1.38628263       0.00000000
Si       1.36112724       1.36422234      -1.37279648       0.00000000
Si      -2.71070813      -2.71360449      -0.00212596       0.00000000
Si      -2.71155195       2.71485882       0.00284605       0.00000000
Si      -2.71158616      -0.00029322       2.71715305       0.00000000
Si       2.68222995      -0.05227461      -2.74731088       0.00000000
Si       0.00320913       2.71480995       2.71691302       0.00000000
Si       2.71867068       2.71357191      -0.00041148       0.00000000
