10
Lattice="16.28999089631971 0.0 0.0 0.0 16.28999089631971 0.0 0.0 0.0 34.28971787722196" Properties=species:S:1:pos:R:3:initial_magmoms:R:1 pbc="T T T"
Si       1.56424725      -1.70077374      -0.46311719       0.00000000
Si       0.39513024       1.42788433      -1.89279348       0.00000000
Si      -1.54976544       0.31536204       1.85723503       0.00000000
Si       1.29293730       0.85757143       1.94189639       0.00000000
Si      -2.06918838      -1.19259090      -0.81619861       0.00000000
Si      -0.90280809      -1.77789060      -2.82924620       0.00000000
Si      -0.63780237       2.41869752       2.60560854       0.00000000
Si       2.82175380       2.31263333       0.81630148       0.00000000
Si      -3.69354573       0.03877020       0.61484927       0.00000000
Si      -1.22347674       3.12012863      -1.78022028       0.00000000
