10
Lattice="16.28999089631971 0.0 0.0 0.0 16.28999089631971 0.0 0.0 0.0 34.28971787722196" Properties=species:S:1:pos:R:3:initial_magmoms:R:1 pbc="T T T"
Si       1.91907603      -0.00974142      -1.38204785       0.00000000
Si      -1.99552500       0.34202484      -1.32543550       0.00000000
Si      -1.59853770      -2.02960368       0.30720175       0.00000000
Si       1.77613128       0.46656189       2.31363143       0.00000000
Si      -0.71794917      -2.35467063       2.41148683       0.00000000
Si      -3.41006715      -0.46551933       0.44010877       0.00000000
Si       1.52787168       2.12185395      -2.50918580       0.00000000
Si       0.12083922      -0.53367669       3.65874721       0.00000000
Si      -2.00523384      -0.86112198      -3.37098976       0.00000000
Si       3.99587184      -0.53020692       0.03758155       0.00000000
