10
Lattice="16.28999089631971 0.0 0.0 0.0 16.28999089631971 0.0 0.0 0.0 34.28971787722196" Properties=species:S:1:pos:R:3:initial_magmoms:R:1 pbc="T T T"
Si       1.30552947      -1.39329581      -1.32162933       0.00000000
Si      -1.83187566      -0.99251294       1.04569982       0.00000000
Si       1.61886762       0.24767313       1.70015374       0.00000000
Si      -1.40618538       1.37571164      -1.31161673       0.00000000
Si       0.02604771      -0.82417208       3.29651245       0.00000000
Si       2.43173862       2.50832928       0.20145221       0.00000000
Si       2.65838139      -0.00651836      -2.68594939       0.00000000
Si      -3.45031974       0.81404059       1.34810101       0.00000000
Si      -0.06261876       2.71188912      -2.69054422       0.00000000
Si      -0.05856255      -2.71894343      -2.68684093       0.00000000
