10
Lattice="16.28999089631971 0.0 0.0 0.0 16.28999089631971 0.0 0.0 0.0 34.28971787722196" Properties=species:S:1:pos:R:3:initial_magmoms:R:1 pbc="T T T"
Si       0.08014680       1.82057040       1.44685545       0.00000000
Si       1.79711280      -1.34191481       0.76404392       0.00000000
Si      -2.00160117      -1.21233764       0.43109057       0.00000000
Si       0.61548507      -3.32020241       0.50769385       0.00000000
Si       1.48848246       3.18498822       0.09697138       0.00000000
Si      -1.08859554      -2.65664555       2.03317567       0.00000000
Si      -2.39774139      -2.31146955      -1.57866520       0.00000000
Si      -2.10453768       2.10779568       2.36489458       0.00000000
Si      -0.33381468      -3.45247721      -1.68180873       0.00000000
Si       3.72576735      -1.11505702      -0.49510951       0.00000000
