10
Lattice="16.28999089631971 0.0 0.0 0.0 16.28999089631971 0.0 0.0 0.0 34.28971787722196" Properties=species:S:1:pos:R:3:initial_magmoms:R:1 pbc="T T T"
Si      -1.35317772       1.35817875       1.35722208       0.00000000
Si       1.36081773      -1.35545832       1.35646771       0.00000000
Si      -1.33547049      -1.35335691      -1.38470188       0.00000000
Si       1.35127179       1.36257705      -1.37424008       0.00000000
Si      -2.70896184       2.71591767      -0.00130301       0.00000000
Si      -2.71151937       0.00048870       2.71502709       0.00000000
Si      -2.71091664      -2.71694394      -0.00133730       0.00000000
Si       0.00403992      -2.71498914       2.71468419       0.00000000
Si       0.00343719       2.71604799       2.71506138       0.00000000
Si       2.71814940      -2.71560816      -0.00401190       0.00000000
