10
Lattice="16.28999089631971 0.0 0.0 0.0 16.28999089631971 0.0 0.0 0.0 34.28971787722196" Properties=species:S:1:pos:R:3:initial_magmoms:R:1 pbc="T T T"
Si      -1.35656604      -1.35682668      -1.35567904       0.00000000
Si      -1.35588186       1.35604476       1.36058248       0.00000000
Si       1.35904212       1.35801585      -1.35578191       0.00000000
Si       1.35949824      -1.35464382       1.36113111       0.00000000
Si      -2.71383255       0.00092853      -2.71276397       0.00000000
Si       0.00172674      -2.71454931      -2.71310686       0.00000000
Si      -2.71308321       2.71498914       0.00264031       0.00000000
Si       0.00112401       2.71648782      -2.71272968       0.00000000
Si       2.71658556       0.00092853      -2.71276397       0.00000000
Si       2.71573848      -2.71407690       0.00082295       0.00000000
