10
Lattice="16.28999089631971 0.0 0.0 0.0 16.28999089631971 0.0 0.0 0.0 34.28971787722196" Properties=species:S:1:pos:R:3:initial_magmoms:R:1 pbc="T T T"
Si       0.45064656       1.68981057       1.58312287       0.00000000
Si       0.18551052       1.21481046      -2.03478729       0.00000000
Si       1.64279763      -1.70333127       0.27829551       0.00000000
Si      -2.01152178      -1.14455169       0.63943502       0.00000000
Si       1.96061553       3.00809511       0.29729202       0.00000000
Si       2.32630974      -1.18118790       2.56500949       0.00000000
Si       0.36253395      -3.70771803       0.39800098       0.00000000
Si      -1.78096941       2.50769889      -2.18247318       0.00000000
Si      -1.84860549      -3.29080806      -0.24623460       0.00000000
Si       1.06660404       0.52800777       3.65192557       0.00000000
