10
Lattice="16.28999089631971 0.0 0.0 0.0 16.28999089631971 0.0 0.0 0.0 34.28971787722196" Properties=species:S:1:pos:R:3:initial_magmoms:R:1 pbc="T T T"
Si      -0.47001537      -1.54052901       1.70570868       0.00000000
Si       1.20866913      -1.44966339      -1.40467908       0.00000000
Si      -1.89179028       0.90678285      -1.07251440       0.00000000
Si       1.20529710       1.99764270       0.87692574       0.00000000
Si      -3.21157350       1.01406879       1.09991190       0.00000000
Si      -0.55829088       2.32945371      -2.61963304       0.00000000
Si       0.77924844       3.44101815      -1.02018826       0.00000000
Si       2.63805147      -2.62097955       0.10403506       0.00000000
Si      -0.65748069      -0.34458237       3.67239655       0.00000000
Si       2.56771125      -0.18435393      -2.79430496       0.00000000
