10
Lattice="16.28999089631971 0.0 0.0 0.0 16.28999089631971 0.0 0.0 0.0 34.28971787722196" Properties=species:S:1:pos:R:3:initial_magmoms:R:1 pbc="T T T"
Si       1.09651248       2.17688157       0.41524872       0.00000000
Si       1.11852027      -1.90107558      -1.14496861       0.00000000
Si      -0.37221021      -0.66121110       2.40845836       0.00000000
Si      -2.07679581       0.52046550      -1.41962940       0.00000000
Si      -2.21974056       0.99676881       2.27604988       0.00000000
Si      -1.67871708      -0.83601909      -3.25087281       0.00000000
Si       0.54403713      -1.53595152      -3.43590023       0.00000000
Si      -0.06775011      -3.78980334      -0.36247681       0.00000000
Si       1.65470562       0.01171251       3.49434507       0.00000000
Si       0.28338084       3.76815393      -1.05650109       0.00000000
