10
Lattice="16.28999089631971 0.0 0.0 0.0 16.28999089631971 0.0 0.0 0.0 34.28971787722196" Properties=species:S:1:pos:R:3:initial_magmoms:R:1 pbc="T T T"
Si       1.35615879       1.35635427       1.35684489       0.00000000
Si      -1.35718506       1.35744570      -1.35674203       0.00000000
Si      -1.35690813      -1.35878148       1.35629626       0.00000000
Si       1.35729909      -1.35790182      -1.35766785       0.00000000
Si       0.00055386       2.71324211      -2.71410127       0.00000000
Si      -0.00434943      -2.71173114       2.71595291       0.00000000
Si      -2.71345788      -0.00097740      -2.71530141       0.00000000
Si      -2.71453302       2.71495941       0.00041148       0.00000000
Si       2.71518462       2.71437838       0.00020574       0.00000000
Si      -2.71301805       0.00283446       2.71667300       0.00000000
