10
Lattice="16.28999089631971 0.0 0.0 0.0 16.28999089631971 0.0 0.0 0.0 34.28971787722196" Properties=species:S:1:pos:R:3:initial_magmoms:R:1 pbc="T T T"
Si      -0.96630651      -1.58519619      -1.47665324       0.00000000
Si      -1.89644922       1.56616525       0.00641218       0.00000000
Si       1.67984109       1.14228738      -1.40642785       0.00000000
Si       0.53836821      -0.92724309       2.56617534       0.00000000
Si      -2.20978737      -0.07480368      -3.01537090       0.00000000
Si       2.87132427      -2.52208296      -0.38599957       0.00000000
Si      -3.48926913       0.49432005       1.60277089       0.00000000
Si       3.02485752       2.44783544       0.13150114       0.00000000
Si      -2.47513518      -3.06939438       0.11514494       0.00000000
Si       1.74265533       0.89966412       3.46874980       0.00000000
