10
Lattice="16.28999089631971 0.0 0.0 0.0 16.28999089631971 0.0 0.0 0.0 34.28971787722196" Properties=species:S:1:pos:R:3:initial_magmoms:R:1 pbc="T T T"
Si       2.02095369       0.46586142       1.15072929       0.00000000
Si      -1.48006053      -0.40153221       1.84567939       0.00000000
Si      -0.05266557      -1.74296484      -1.71129791       0.00000000
Si      -1.01665890       1.86432601      -1.25462719       0.00000000
Si      -3.47775210      -0.12961953       0.51955810       0.00000000
Si       2.28485169       2.72828897       0.57181565       0.00000000
Si       1.27132047       0.71456085       3.33594565       0.00000000
Si      -1.66599459      -3.22059816      -0.86478717       0.00000000
Si      -0.74534895      -0.69401916      -3.65964077       0.00000000
Si       3.71838798      -1.05981111       0.25868178       0.00000000
