10
Lattice="16.28999089631971 0.0 0.0 0.0 16.28999089631971 0.0 0.0 0.0 34.28971787722196" Properties=species:S:1:pos:R:3:initial_magmoms:R:1 pbc="T T T"
Si      -0.81313164       1.59127236      -1.47174980       0.00000000
Si       2.33580681      -0.08791713      -0.52552451       0.00000000
Si      -1.09651248      -2.17688157      -0.41524872       0.00000000
Si      -0.67600242       1.78623108       1.66270935       0.00000000
Si       2.39782284      -1.25735994       1.68990111       0.00000000
Si      -0.37524015       3.44031835      -0.13743327       0.00000000
Si      -1.46872269      -2.83809267       1.99320965       0.00000000
Si       0.55819314      -2.16516906       3.07909635       0.00000000
Si       3.12621390       2.18207712      -0.08136955       0.00000000
Si      -3.13747029       1.96570959      -1.20065514       0.00000000
