10
Lattice="16.28999089631971 0.0 0.0 0.0 16.28999089631971 0.0 0.0 0.0 34.28971787722196" Properties=species:S:1:pos:R:3:initial_magmoms:R:1 pbc="T T T"
Si       1.20606273       1.53983898       1.47740216       0.00000000
Si       0.30076227       1.65408727      -1.80014262       0.00000000
Si      -1.62794115      -1.20063816       1.51461681       0.00000000
Si       0.67600242      -1.78623108      -1.66270935       0.00000000
Si      -0.13712922      -0.19495872      -3.13445915       0.00000000
Si      -2.46146787       0.17947851      -2.86336449       0.00000000
Si       2.52117072       0.15515341       2.92064691       0.00000000
Si      -0.17558991      -2.55083481       2.90761681       0.00000000
Si       2.21781834       3.27916790       0.18242140       0.00000000
Si      -2.64025062      -2.96634384       0.19809181       0.00000000
