10
Lattice="16.28999089631971 0.0 0.0 0.0 16.28999089631971 0.0 0.0 0.0 34.28971787722196" Properties=species:S:1:pos:R:3:initial_magmoms:R:1 pbc="T T T"
Si      -1.34697123      -1.34960603      -1.39675815       0.00000000
Si       1.36604682       1.36692811      -1.39422071       0.00000000
Si      -1.57361400       1.16524162       1.49064345       0.00000000
Si       1.18980531      -1.51929241       1.57650495       0.00000000
Si       2.71653669      -2.70725695      -0.00610357       0.00000000
Si      -2.69982315      -2.73638347      -0.03243809       0.00000000
Si       2.71981098       2.71779265       0.00593212       0.00000000
Si      -2.72543103       2.71758088      -0.00366900       0.00000000
Si       0.00526167      -2.70851128      -2.75747778       0.00000000
Si      -2.70954828       0.00704705      -2.75778639       0.00000000
