10
Lattice="16.28999089631971 0.0 0.0 0.0 16.28999089631971 0.0 0.0 0.0 34.28971787722196" Properties=species:S:1:pos:R:3:initial_magmoms:R:1 pbc="T T T"
Si      -0.27598518      -2.24064715      -0.51355739       0.00000000
Si       1.23443991       0.53322057       1.90116018       0.00000000
Si       0.86216454      -0.93019158      -2.12407776       0.00000000
Si      -2.51327007       2.05939809       0.07852350       0.00000000
Si      -1.46263023       2.08621143      -2.06365924       0.00000000
Si      -2.20463973      -2.46750494       0.74559604       0.00000000
Si      -0.55110699       1.67089788       2.97381173       0.00000000
Si      -0.61525701       0.30556782      -3.44848456       0.00000000
Si      -1.05497298       3.31144749       1.40070147       0.00000000
Si       2.91843495       2.17877121       1.60568552       0.00000000
