10
Lattice="16.28999089631971 0.0 0.0 0.0 16.28999089631971 0.0 0.0 0.0 34.28971787722196" Properties=species:S:1:pos:R:3:initial_magmoms:R:1 pbc="T T T"
Si      -2.01272724      -0.67741965      -1.02598322       0.00000000
Si       0.38949390       2.02329945      -1.16677688       0.00000000
Si       1.78048071      -1.25012066      -0.94924279       0.00000000
Si      -0.29087424      -0.14675661       2.66232376       0.00000000
Si       3.46524857       0.32195556      -0.54698989       0.00000000
Si      -1.57428189      -0.50323068      -3.33378539       0.00000000
Si      -2.27662524      -2.93984720      -0.44706959       0.00000000
Si      -0.29401821       1.50115608      -3.45349087       0.00000000
Si       2.68114245       2.43447534      -1.21793717       0.00000000
Si      -0.87021180       3.73249512      -0.07986080       0.00000000
