10
Lattice="16.28999089631971 0.0 0.0 0.0 16.28999089631971 0.0 0.0 0.0 34.28971787722196" Properties=species:S:1:pos:R:3:initial_magmoms:R:1 pbc="T T T"
Si      -1.28026368      -2.00438676       0.11970547       0.00000000
Si      -1.64279763       1.70333127      -0.27829551       0.00000000
Si       1.67743017      -0.30160935      -1.73005439       0.00000000
Si       0.68351211       0.52214337       2.28671398       0.00000000
Si      -1.71870903      -2.17857573       2.42750764       0.00000000
Si      -3.65431941       0.55877958       0.36113951       0.00000000
Si       0.29401821      -1.50115608       3.45349087       0.00000000
Si      -1.19215107       3.39314184       1.30482736       0.00000000
Si       2.97516066       0.93331926       2.23555370       0.00000000
Si      -3.49140312      -1.58747679      -0.52453011       0.00000000
