10
Lattice="16.28999089631971 0.0 0.0 0.0 16.28999089631971 0.0 0.0 0.0 34.28971787722196" Properties=species:S:1:pos:R:3:initial_magmoms:R:1 pbc="T T T"
Si      -1.23443991      -0.53322057      -1.90116018       0.00000000
Si       0.91152324      -1.59412311       1.44651256       0.00000000
Si       1.68399504       1.64555064      -0.29547466       0.00000000
Si      -1.78554690       1.13767731       1.07265155       0.00000000
Si      -2.28941289       2.77822692      -0.50045871       0.00000000
Si       1.88261901       2.86148511       1.80960658       0.00000000
Si       3.73676051       0.51662106      -0.90199153       0.00000000
Si       2.90580598      -2.58088986       0.65740284       0.00000000
Si      -0.40842288      -3.46554926       1.84561081       0.00000000
Si       1.51780446      -0.75636099       3.56705848       0.00000000
