10
Lattice="16.28999089631971 0.0 0.0 0.0 16.28999089631971 0.0 0.0 0.0 34.28971787722196" Properties=species:S:1:pos:R:3:initial_magmoms:R:1 pbc="T T T"
Si       1.28573712      -1.33351569       1.50906047       0.00000000
Si      -2.02691583      -0.67292361      -1.08588671       0.00000000
Si       1.83962970       0.90780912      -1.38919524       0.00000000
Si      -1.40978547       1.40056533       1.49122980       0.00000000
Si       2.53910601       2.64218913       0.10891106       0.00000000
Si       3.45220938      -0.90764622      -1.15922663       0.00000000
Si       2.61975780      -2.71660185       0.15786309       0.00000000
Si      -0.55819314       2.16516906      -3.07909635       0.00000000
Si      -1.65470562      -0.01171251      -3.49434507       0.00000000
Si      -2.85610941      -2.64318282       0.11617020       0.00000000
