10
Lattice="16.28999089631971 0.0 0.0 0.0 16.28999089631971 0.0 0.0 0.0 34.28971787722196" Properties=species:S:1:pos:R:3:initial_magmoms:R:1 pbc="T T T"
Si       2.17007235      -0.60634638       0.48952029       0.00000000
Si      -1.50996897      -1.31828454       1.28583085       0.00000000
Si       0.30820680       2.03282910       1.20236963       0.00000000
Si      -0.09055611      -0.14322168      -2.45559094       0.00000000
Si       3.03056458       1.08597285      -0.87270810       0.00000000
Si      -1.77510501      -1.79328465      -2.33207931       0.00000000
Si      -3.23786556       0.25024698       1.33071612       0.00000000
Si      -1.96061553      -3.00809511      -0.29729202       0.00000000
Si       2.01052809       3.04697934      -0.03720436       0.00000000
Si       1.23087240       1.47727494       3.29181476       0.00000000
