10
Lattice="16.28999089631971 0.0 0.0 0.0 16.28999089631971 0.0 0.0 0.0 34.28971787722196" Properties=species:S:1:pos:R:3:initial_magmoms:R:1 pbc="T T T"
Si      -1.80696825       1.44031293       0.22188889       0.00000000
Si       1.70232129       1.01415024      -1.23957399       0.00000000
Si       0.92266560      -0.55555416       2.08944513       0.00000000
Si      -0.30820680      -2.03282910      -1.20236963       0.00000000
Si       1.86186555      -2.63917548      -0.71284934       0.00000000
Si      -3.09760866       0.04932612       1.59087235       0.00000000
Si       2.72235778      -0.94685625      -2.07507773       0.00000000
Si       2.46708370      -2.18429352       1.48388837       0.00000000
Si       2.30618086       1.28743128       2.50249930       0.00000000
Si       0.58762917       2.53482174      -2.65594587       0.00000000
