10
Lattice="16.28999089631971 0.0 0.0 0.0 16.28999089631971 0.0 0.0 0.0 34.28971787722196" Properties=species:S:1:pos:R:3:initial_magmoms:R:1 pbc="T T T"
Si       1.70004462       1.19734758      -1.10748993       0.00000000
Si      -0.27642501       1.48229226       1.81154845       0.00000000
Si      -1.97604216      -0.22196754      -1.48584289       0.00000000
Si      -0.71534277      -2.35563174       0.46551747       0.00000000
Si      -1.10887659      -0.32666337       3.12863817       0.00000000
Si      -2.55813273      -1.56989988       1.70639447       0.00000000
Si      -0.81902862       0.23739417      -3.46089745       0.00000000
Si      -2.15006823      -2.54205450      -1.41349154       0.00000000
Si       2.80188719      -1.46134332       1.82158814       0.00000000
Si       3.49284383      -0.60027021      -1.16338220       0.00000000
