10
Lattice="16.28999089631971 0.0 0.0 0.0 16.28999089631971 0.0 0.0 0.0 34.28971787722196" Properties=species:S:1:pos:R:3:initial_magmoms:R:1 pbc="T T T"
Si       1.26799731       1.56518492      -1.23303048       0.00000000
Si       1.46614887      -1.23719292       1.40537516       0.00000000
Si      -1.25213085       1.46436442       1.39534884       0.00000000
Si      -0.69947631      -1.73438001      -1.49810631       0.00000000
Si      -2.53910601      -2.64218913      -0.10891106       0.00000000
Si       0.02891475       1.70505705      -3.26937696       0.00000000
Si       2.78169084      -2.52683964      -0.05881719       0.00000000
Si       0.11302002      -2.60525970       2.76539185       0.00000000
Si      -2.60527599       0.11047878       2.76710634       0.00000000
Si      -0.76149234      -0.56493720      -3.71353193       0.00000000
