10
Lattice="16.28999089631971 0.0 0.0 0.0 16.28999089631971 0.0 0.0 0.0 34.28971787722196" Properties=species:S:1:pos:R:3:initial_magmoms:R:1 pbc="T T T"
Si       1.20428712       1.82690721       0.90257446       0.00000000
Si      -1.59589872      -0.12261483       1.92389428       0.00000000
Si       1.37505519      -2.00349081       0.64872754       0.00000000
Si      -0.53836821       0.92724309      -2.56617534       0.00000000
Si      -3.07833759       1.55383794       1.22609813       0.00000000
Si       1.59097914       1.17853263       3.14862081       0.00000000
Si      -0.29910069      -3.69861192       0.55597380       0.00000000
Si       0.03194469       3.75898333       0.22329477       0.00000000
Si       3.22309053       2.08344213      -0.40578475       0.00000000
Si       3.14809137      -2.18608542      -0.84400759       0.00000000
