10
Lattice="16.28999089631971 0.0 0.0 0.0 16.28999089631971 0.0 0.0 0.0 34.28971787722196" Properties=species:S:1:pos:R:3:initial_magmoms:R:1 pbc="T T T"
Si      -1.08762158       1.83764232      -0.99601399       0.00000000
Si       1.20351220       1.22741892       1.63179513       0.00000000
Si      -1.35440291      -1.41951060       1.42490800       0.00000000
Si       1.30750431       0.07250679      -2.16714567       0.00000000
Si       2.43698775      -1.99339101      -1.61556096       0.00000000
Si       2.42960838       2.73193074       0.36005668       0.00000000
Si       3.09961608       1.54649115      -1.50411932       0.00000000
Si      -2.93041154       2.62337418       0.24486301       0.00000000
Si      -0.09647282       2.54891259       3.03655994       0.00000000
Si      -3.11729042      -2.47621032       0.27527801       0.00000000
