10
Lattice="16.28999089631971 0.0 0.0 0.0 16.28999089631971 0.0 0.0 0.0 34.28971787722196" Properties=species:S:1:pos:R:3:initial_magmoms:R:1 pbc="T T T"
Si       1.35567009       1.35633749       1.35687918       0.00000000
Si       1.35694071      -1.35699400      -1.35756498       0.00000000
Si      -1.35709058       1.35769607      -1.35766785       0.00000000
Si      -1.35957480      -1.35989362       1.35845651       0.00000000
Si      -2.71316122       0.00008693      -2.71427271       0.00000000
Si       2.71301805       0.00060067      -2.71495851       0.00000000
Si      -0.00100998      -2.71391842      -2.71406698       0.00000000
Si       0.00342090      -2.71404874       2.71437558       0.00000000
Si       2.71443528      -2.71452115       0.00034290       0.00000000
Si       0.00166158       2.71512222      -2.71437558       0.00000000
