10
Lattice="16.28999089631971 0.0 0.0 0.0 16.28999089631971 0.0 0.0 0.0 34.28971787722196" Properties=species:S:1:pos:R:3:initial_magmoms:R:1 pbc="T T T"
Si       1.35717583       1.32621777       1.36157688       0.00000000
Si      -1.36348290      -1.33667595       1.35032984       0.00000000
Si      -1.35758592       1.35397593      -1.35715350       0.00000000
Si       1.35534484      -1.35819504      -1.35547331       0.00000000
Si       0.00876853       2.63138886       2.75387736       0.00000000
Si       2.56787144      -0.15589530       2.83980744       0.00000000
Si      -0.00011567       2.71388142      -2.71290113       0.00000000
Si      -2.71465695      -0.00087966      -2.71310686       0.00000000
Si       2.71495385      -0.00094482      -2.71283255       0.00000000
Si      -0.00007385      -2.71616202      -2.71279826       0.00000000
