10
Lattice="16.28999089631971 0.0 0.0 0.0 16.28999089631971 0.0 0.0 0.0 34.28971787722196" Properties=species:S:1:pos:R:3:initial_magmoms:R:1 pbc="T T T"
Si       1.27534410      -0.27287379       1.90914969       0.00000000
Si       1.65565044      -0.46002960      -1.60294234       0.00000000
Si      -1.64385811      -1.72463859      -0.11689371       0.00000000
Si      -1.55647529       1.84759551       0.13328421       0.00000000
Si      -0.27461682       0.65138823       3.34427805       0.00000000
Si      -1.21064185      -2.51616969       2.02854655       0.00000000
Si       0.23193702      -0.60887133      -3.45691984       0.00000000
Si      -2.65371335       1.40569668      -1.87434561       0.00000000
Si      -0.72169913       1.55571129      -3.19816948       0.00000000
Si      -2.23067834      -0.55516320       2.86405029       0.00000000
