10
Lattice="16.28999089631971 0.0 0.0 0.0 16.28999089631971 0.0 0.0 0.0 34.28971787722196" Properties=species:S:1:pos:R:3:initial_magmoms:R:1 pbc="T T T"
Si      -1.38351526      -1.84298544      -0.41305417       0.00000000
Si       1.97619040      -0.03925890      -1.27605827       0.00000000
Si      -1.43872207       1.91394468       0.03634712       0.00000000
Si       1.13555798      -0.88303203       1.94035335       0.00000000
Si       2.11089241      -2.34753561      -1.65684580       0.00000000
Si       0.16090285      -3.47172480      -1.01861093       0.00000000
Si      -2.30618086      -1.28743128      -2.50249930       0.00000000
Si       1.35220195       0.93327039      -3.26184553       0.00000000
Si       0.11160116       3.67217325      -0.16945988       0.00000000
Si      -0.56448664      -2.08037961       3.04784328       0.00000000
