10
Lattice="16.28999089631971 0.0 0.0 0.0 16.28999089631971 0.0 0.0 0.0 34.28971787722196" Properties=species:S:1:pos:R:3:initial_magmoms:R:1 pbc="T T T"
Si      -1.70004462      -1.19734758       1.10748993       0.00000000
Si       1.80066728       1.24556598       0.98644716       0.00000000
Si      -1.13555798       0.88303203      -1.94035335       0.00000000
Si       1.79279921      -1.79761779      -0.05589227       0.00000000
Si       0.84063242       0.84377313      -3.21641162       0.00000000
Si      -1.97646963       0.28494468       2.91903838       0.00000000
Si      -2.51907324      -0.95995341      -2.35340752       0.00000000
Si       3.61219673      -0.31851837       0.85354013       0.00000000
Si       3.21520943       2.05311015      -0.77909712       0.00000000
Si      -3.67608678      -1.41931512      -0.37835296       0.00000000
