10
Lattice="16.28999089631971 0.0 0.0 0.0 16.28999089631971 0.0 0.0 0.0 34.28971787722196" Properties=species:S:1:pos:R:3:initial_magmoms:R:1 pbc="T T T"
Si      -1.68903772      -0.77919957      -1.59937620       0.00000000
Si      -1.35479695      -0.29805813       2.06605953       0.00000000
Si       1.70738748      -1.84296915      -0.07934645       0.00000000
Si       1.02016125       1.88048502      -1.51471484       0.00000000
Si       2.41803873       1.12068684       2.02696923       0.00000000
Si      -0.34063042      -2.08437066      -2.99167669       0.00000000
Si      -2.50575128       1.86329907       2.19179999       0.00000000
Si      -3.39588575      -1.81498293      -0.35459017       0.00000000
Si       2.37043935       0.64871667      -2.98615604       0.00000000
Si       3.52857690      -0.79930143      -1.50291917       0.00000000
