10
Lattice="16.28999089631971 0.0 0.0 0.0 16.28999089631971 0.0 0.0 0.0 34.71893929493243" Properties=species:S:1:pos:R:3:initial_magmoms:R:1 pbc="T T T"
Si       0.73386124      -1.87823700      -1.23328685       0.00000000
Si      -1.62365103      -0.77349807       1.59748873       0.00000000
Si       2.26569139       0.77027265       0.33416998       0.00000000
Si      -1.06292250       1.36822968      -1.70109010       0.00000000
Si       1.74452542      -0.61232481      -2.95704843       0.00000000
Si      -3.39044814      -0.83748519      -0.01055456       0.00000000
Si       0.09928103       0.90028314      -3.71180387       0.00000000
Si      -3.34798011       0.86838732      -1.62963848       0.00000000
Si       3.37855903       0.50798736      -1.73025403       0.00000000
Si       2.05129870      -3.23845200       0.18921832       0.00000000
