10
Lattice="16.28999089631971 0.0 0.0 0.0 16.28999089631971 0.0 0.0 0.0 34.71893929493243" Properties=species:S:1:pos:R:3:initial_magmoms:R:1 pbc="T T T"
Si      -1.41221268       0.93273282       1.63568657       0.00000000
Si      -1.84775841      -0.53585955      -1.48145797       0.00000000
Si       1.43174439       1.37443617      -1.48086775       0.00000000
Si       1.30279275      -1.88460639       1.20523393       0.00000000
Si       0.29022264       1.86201216       2.83559947       0.00000000
Si      -1.98249300       1.74086343      -2.45615801       0.00000000
Si       3.43272654      -0.12171888      -1.27449825       0.00000000
Si      -2.41312892      -0.80765820       2.77327894       0.00000000
Si       2.81209383       2.74004316      -0.17040065       0.00000000
Si       1.24906833       3.43935235       1.43898839       0.00000000
