10
Lattice="16.28999089631971 0.0 0.0 0.0 16.28999089631971 0.0 0.0 0.0 34.71893929493243" Properties=species:S:1:pos:R:3:initial_magmoms:R:1 pbc="T T T"
Si       0.02775816      -1.35254241      -1.95884365       0.00000000
Si       1.84775841       0.53585955       1.48145797       0.00000000
Si      -2.17977209      -0.89135622       0.68417180       0.00000000
Si      -0.13473459       2.27672298      -0.97470005       0.00000000
Si      -3.21555545       0.25536204      -1.16131445       0.00000000
Si       0.43554573       1.46859237       3.11714453       0.00000000
Si      -2.13800453      -0.92634714      -2.95055599       0.00000000
Si      -2.20153553       2.24262801      -2.12469612       0.00000000
Si       3.27950280       1.91029572       0.00059022       0.00000000
Si       1.86111621      -0.64918908      -3.40183301       0.00000000
