10
Lattice="16.28999089631971 0.0 0.0 0.0 16.28999089631971 0.0 0.0 0.0 34.71893929493243" Properties=species:S:1:pos:R:3:initial_magmoms:R:1 pbc="T T T"
Si      -1.34648253      -1.34469293      -1.31626863       0.00000000
Si      -1.35469269       1.35477903       1.35449074       0.00000000
Si       1.36120869      -1.36000069       1.35549759       0.00000000
Si       1.36635633       1.35536547      -1.36816306       0.00000000
Si       2.56217265      -0.18921649      -2.65324366       0.00000000
Si      -0.07017732      -2.74441118      -2.58831573       0.00000000
Si      -2.66289861      -0.05054135      -2.70269387       0.00000000
Si      -2.70987245       2.71219215      -0.00774233       0.00000000
Si      -2.71169041      -0.00152474       2.71241865       0.00000000
Si       0.00322542       2.71341390       2.71193258       0.00000000
