10
Lattice="16.28999089631971 0.0 0.0 0.0 16.28999089631971 0.0 0.0 0.0 34.71893929493243" Properties=species:S:1:pos:R:3:initial_magmoms:R:1 pbc="T T T"
Si      -0.95884569      -1.57734019       1.39661108       0.00000000
Si       1.56302550      -0.69930919      -1.60938904       0.00000000
Si       1.67350428       0.97785449       1.33168316       0.00000000
Si      -1.61235162       1.25537908      -1.18873413       0.00000000
Si       2.02784436       1.59436257      -1.74062670       0.00000000
Si       0.00363267       2.93253720      -1.76291627       0.00000000
Si      -2.23515090      -0.17762194       2.66865818       0.00000000
Si       0.18267606      -2.06491618      -2.91985613       0.00000000
Si      -2.66128101      -2.50661953       0.19669818       0.00000000
Si       0.47768796       2.52243645       2.61676375       0.00000000
