10
Lattice="16.28999089631971 0.0 0.0 0.0 16.28999089631971 0.0 0.0 0.0 34.71893929493243" Properties=species:S:1:pos:R:3:initial_magmoms:R:1 pbc="T T T"
Si       1.35961227      -1.35411109      -1.35320613       0.00000000
Si      -1.35803214      -1.35626137       1.35702522       0.00000000
Si       1.35733167       1.35815992       1.35705994       0.00000000
Si      -1.36120869       1.36000069      -1.35549759       0.00000000
Si      -2.70769122       0.01530776      -2.67176622       0.00000000
Si       2.70673011      -0.02468287      -2.70722816       0.00000000
Si       2.71373481      -2.71333240      -0.00020831       0.00000000
Si      -0.00047241      -2.71354417       2.71401572       0.00000000
Si       2.71336014       2.71447021      -0.00086797       0.00000000
Si       2.71451673       0.00078673       2.71384213       0.00000000
