10
Lattice="16.28999089631971 0.0 0.0 0.0 16.28999089631971 0.0 0.0 0.0 34.71893929493243" Properties=species:S:1:pos:R:3:initial_magmoms:R:1 pbc="T T T"
Si      -0.38659428       2.15586747       0.94310579       0.00000000
Si      -1.51630578      -1.85360163      -0.00079854       0.00000000
Si      -0.68576013       0.49308201      -2.25975286       0.00000000
Si       2.26681866      -0.83593764       0.45624184       0.00000000
Si       1.06577325       3.33197289      -0.53758836       0.00000000
Si      -2.61907362       2.53320903       0.36850703       0.00000000
Si       2.64867255      -1.93215364      -1.64696324       0.00000000
Si      -0.26448444      -3.47213924      -1.25377104       0.00000000
Si      -2.60244153       1.84800276      -1.88378126       0.00000000
Si      -1.82635335      -2.31672959       2.25239245       0.00000000
