10
Lattice="16.28999089631971 0.0 0.0 0.0 16.28999089631971 0.0 0.0 0.0 34.71893929493243" Properties=species:S:1:pos:R:3:initial_magmoms:R:1 pbc="T T T"
Si      -0.57767598      -2.11547871       0.65920887       0.00000000
Si       2.08007010      -0.52466669      -1.00684980       0.00000000
Si      -0.38185389       1.09621600       2.10320508       0.00000000
Si      -2.91315699      -1.53998559       0.39319221       0.00000000
Si      -2.64867255       1.93215364       1.64696324       0.00000000
Si       0.21274740      -3.68112690      -0.98049811       0.00000000
Si       3.77854695      -0.23802296       0.55848917       0.00000000
Si       0.15043815      -2.50502148       2.89809564       0.00000000
Si      -0.92629827      -2.35479510      -3.00426622       0.00000000
Si      -2.74796010      -0.39967026      -2.86719577       0.00000000
