10
Lattice="16.28999089631971 0.0 0.0 0.0 16.28999089631971 0.0 0.0 0.0 34.71893929493243" Properties=species:S:1:pos:R:3:initial_magmoms:R:1 pbc="T T T"
Si       0.52849647       1.68909381       1.57464365       0.00000000
Si      -2.24186238       0.49313088      -0.60119349       0.00000000
Si       0.60466851      -2.09396547       1.02212614       0.00000000
Si       1.40341608       0.10590129      -1.96752339       0.00000000
Si       3.36774573      -0.98344359      -0.91206704       0.00000000
Si       0.41780592       0.53499618       3.58323957       0.00000000
Si       2.85912306       2.07617679       1.41208949       0.00000000
Si      -2.65176765       2.76581394      -0.04572487       0.00000000
Si      -1.04081697      -3.67477965       0.39263670       0.00000000
Si      -3.69422991      -0.68297454       0.87950066       0.00000000
