10
Lattice="16.28999089631971 0.0 0.0 0.0 16.28999089631971 0.0 0.0 0.0 34.71893929493243" Properties=species:S:1:pos:R:3:initial_magmoms:R:1 pbc="T T T"
Si      -1.80582795      -1.28010078      -0.76958044       0.00000000
Si      -0.20559609      -0.14597469       2.38363011       0.00000000
Si       1.82518047      -1.66175919      -0.43173025       0.00000000
Si      -0.24708672       2.32707537      -1.31473753       0.00000000
Si       3.31143120       0.27126108      -1.23061349       0.00000000
Si       1.82301390       0.52220853       3.28309417       0.00000000
Si      -0.83828340      -2.16122688      -3.00388431       0.00000000
Si      -3.69712953       0.34391448      -1.04691548       0.00000000
Si       2.05798086       2.96645787      -1.44465587       0.00000000
Si       2.05537446       0.87465897      -3.18956130       0.00000000
