10
Lattice="16.28999089631971 0.0 0.0 0.0 16.28999089631971 0.0 0.0 0.0 34.71893929493243" Properties=species:S:1:pos:R:3:initial_magmoms:R:1 pbc="T T T"
Si       0.93545325      -1.74677670      -1.33976990       0.00000000
Si       1.66144968       1.10322396       1.32770302       0.00000000
Si      -1.06916157      -1.65871296       1.37862878       0.00000000
Si      -1.30279275       1.88460639      -1.20523393       0.00000000
Si      -2.30477436      -0.30472074       2.85199723       0.00000000
Si       2.12993379       1.76288751      -2.47973219       0.00000000
Si       0.42241599       2.41279335       2.85452130       0.00000000
Si       1.83138696      -0.46827234      -3.25917281       0.00000000
Si       2.73435795      -2.64577293       0.19080051       0.00000000
Si       2.74800897       2.65670352      -0.19536358       0.00000000
