10
Lattice="16.28999089631971 0.0 0.0 0.0 16.28999089631971 0.0 0.0 0.0 34.71893929493243" Properties=species:S:1:pos:R:3:initial_magmoms:R:1 pbc="T T T"
Si       1.35589815       1.35832536      -1.35667803       0.00000000
Si       1.35690813      -1.35736425       1.35834454       0.00000000
Si      -1.35830907       1.35811359       1.35754600       0.00000000
Si      -1.35941679      -1.35744570      -1.35744185       0.00000000
Si       0.00177561       2.71754667      -2.70967585       0.00000000
Si       2.71262709       0.00081450      -2.71623773       0.00000000
Si       2.71414206       2.71513575       0.00069438       0.00000000
Si       2.71370223       0.00083079       2.71561279       0.00000000
Si       2.71472850      -2.71495656       0.00045135       0.00000000
Si      -2.71564074       0.00237834       2.71429347       0.00000000
