10
Lattice="16.28999089631971 0.0 0.0 0.0 16.28999089631971 0.0 0.0 0.0 34.71893929493243" Properties=species:S:1:pos:R:3:initial_magmoms:R:1 pbc="T T T"
Si      -0.94516209       0.80280378       2.01994902       0.00000000
Si      -1.37914398      -1.85183091      -0.58813916       0.00000000
Si      -0.50412663       0.87661377      -2.16667134       0.00000000
Si       2.30764140       0.09593181       0.64934868       0.00000000
Si      -3.40422719      -1.32304122       0.47176121       0.00000000
Si      -2.59040648       2.31541173       1.26519357       0.00000000
Si      -3.61929754       0.88122384      -0.34625218       0.00000000
Si       2.29162833       0.22431330       3.04551234       0.00000000
Si       0.68887152       1.92311595       3.24674342       0.00000000
Si       0.10925703      -1.12746348      -3.70631828       0.00000000
