10
Lattice="16.28999089631971 0.0 0.0 0.0 16.28999089631971 0.0 0.0 0.0 34.71893929493243" Properties=species:S:1:pos:R:3:initial_magmoms:R:1 pbc="T T T"
Si      -0.33904377       2.07995837       1.11906148       0.00000000
Si      -0.72811413       0.38954277      -2.23888677       0.00000000
Si      -1.18934919      -1.93587102       0.74489526       0.00000000
Si       2.28389058      -0.75233736      -0.02506709       0.00000000
Si       0.10379988      -3.64915548      -0.18022611       0.00000000
Si      -0.53229204       3.60123749      -0.79489056       0.00000000
Si       2.13240987      -2.98097226       0.71923795       0.00000000
Si      -2.51299314       1.91488040       2.12021737       0.00000000
Si      -1.20536226      -1.80748953       3.14105891       0.00000000
Si      -0.15043815       2.50502148      -2.89809564       0.00000000
