10
Lattice="16.28999089631971 0.0 0.0 0.0 16.28999089631971 0.0 0.0 0.0 34.71893929493243" Properties=species:S:1:pos:R:3:initial_magmoms:R:1 pbc="T T T"
Si      -1.35371529       1.35451024       1.35591421       0.00000000
Si       1.35496962      -1.35434071       1.36119149       0.00000000
Si      -1.35614250      -1.35793520      -1.35646972       0.00000000
Si       1.35870003       1.35750760      -1.35612253       0.00000000
Si      -0.00084708       2.70144889       2.72172333       0.00000000
Si      -2.71277370       2.71355236       0.00111101       0.00000000
Si      -2.71332756      -0.00056200      -2.71325190       0.00000000
Si      -2.71262709      -2.71411992       0.00065966       0.00000000
Si       0.00185706       2.71422025      -2.71321718       0.00000000
Si       0.00131949      -2.71524393      -2.71314775       0.00000000
