10
Lattice="16.28999089631971 0.0 0.0 0.0 16.28999089631971 0.0 0.0 0.0 34.71893929493243" Properties=species:S:1:pos:R:3:initial_magmoms:R:1 pbc="T T T"
Si       0.02476080      -1.73881482       1.54672961       0.00000000
Si      -0.71219880       1.49285144       1.70390234       0.00000000
Si      -1.44247950      -0.80936034      -1.73869073       0.00000000
Si       2.28362994       0.22049167      -0.76194227       0.00000000
Si       1.68863769      -0.96914490       3.00430093       0.00000000
Si       1.44624249       1.74735011       2.86598060       0.00000000
Si      -1.81954413      -3.11031879      -1.02931297       0.00000000
Si       2.39477661      -1.02671376      -2.81792956       0.00000000
Si       0.08529444      -1.18444983      -3.69034756       0.00000000
Si      -3.42858888       0.77304521      -1.67765480       0.00000000
