10
Lattice="16.28999089631971 0.0 0.0 0.0 16.28999089631971 0.0 0.0 0.0 34.71893929493243" Properties=species:S:1:pos:R:3:initial_magmoms:R:1 pbc="T T T"
Si      -1.65364677      -1.05023259       1.29136077       0.00000000
Si      -1.36052451      -0.10510308      -1.91714115       0.00000000
Si       1.14640875       1.72147833       1.27869529       0.00000000
Si       1.80431298      -1.69702704      -0.02773542       0.00000000
Si      -0.63428373      -2.32085259      -2.39164516       0.00000000
Si      -0.15682383      -2.28004614       2.68662892       0.00000000
Si       0.56747844       2.84960970      -2.10726217       0.00000000
Si       2.57320098       0.44460297       2.68880233       0.00000000
Si      -0.43539912       1.23740469      -3.58771329       0.00000000
Si       1.69163505      -1.86830010      -2.95200915       0.00000000
