10
Lattice="16.28999089631971 0.0 0.0 0.0 16.28999089631971 0.0 0.0 0.0 34.71893929493243" Properties=species:S:1:pos:R:3:initial_magmoms:R:1 pbc="T T T"
Si      -1.40341608      -0.10590129       1.96752339       0.00000000
Si      -0.51600204       1.97327286      -1.32966668       0.00000000
Si       1.96432965      -1.08934488       1.05545634       0.00000000
Si       0.33865281       0.38408562      -2.96631839       0.00000000
Si       2.82150945       1.32598971      -0.47873972       0.00000000
Si       3.34764387      -1.33354827      -0.80370917       0.00000000
Si       0.22263543       3.74313249       0.15946418       0.00000000
Si      -0.79874757      -2.19986676       2.98964953       0.00000000
Si       2.16003771      -1.30205970      -2.89882474       0.00000000
Si       1.16533773      -3.13201314       1.99307654       0.00000000
