10
Lattice="16.28999089631971 0.0 0.0 0.0 16.28999089631971 0.0 0.0 0.0 34.71893929493243" Properties=species:S:1:pos:R:3:initial_magmoms:R:1 pbc="T T T"
Si      -0.11069055      -1.15409763       2.00859592       0.00000000
Si       2.33062659       0.38708298      -0.16255416       0.00000000
Si      -0.52849647      -1.68909381      -1.57464365       0.00000000
Si      -1.74368160       1.61678250       0.23261702       0.00000000
Si      -2.77035885      -1.19596293      -2.17583714       0.00000000
Si      -3.18026412       1.07672013      -1.62036852       0.00000000
Si       0.92620053      -3.20882049       1.67696042       0.00000000
Si       0.07617204      -3.78305928      -0.55251751       0.00000000
Si      -0.93322152       3.67572447      -0.56734250       0.00000000
Si       3.52833255      -1.57737699      -0.51304205       0.00000000
