10
Lattice="16.28999089631971 0.0 0.0 0.0 16.28999089631971 0.0 0.0 0.0 34.71893929493243" Properties=species:S:1:pos:R:3:initial_magmoms:R:1 pbc="T T T"
Si      -1.03689108       2.05472286       0.33163549       0.00000000
Si      -0.65246337      -1.17791361       1.93263084       0.00000000
Si       2.32515315       0.08878050      -0.43711169       0.00000000
Si      -0.85002849      -0.57423879      -2.22947793       0.00000000
Si      -0.52711182      -3.30180870       0.85919007       0.00000000
Si       2.63505411      -1.92901293      -1.52957844       0.00000000
Si      -3.18365244       1.38546450       1.04920693       0.00000000
Si      -2.95906221      -0.71948043       2.05501517       0.00000000
Si       1.11405681      -1.50638517      -3.22605092       0.00000000
Si      -0.92620053       3.20882049      -1.67696042       0.00000000
