10
Lattice="16.28999089631971 0.0 0.0 0.0 16.28999089631971 0.0 0.0 0.0 34.71893929493243" Properties=species:S:1:pos:R:3:initial_magmoms:R:1 pbc="T T T"
Si       1.95069492       0.75308670      -1.15676627       0.00000000
Si      -0.81964764      -1.91855475      -1.25047274       0.00000000
Si       2.01688119      -0.40083174       1.46527893       0.00000000
Si      -1.77127686       2.30164668       0.42252973       0.00000000
Si      -0.51522012       1.69824879       2.38147753       0.00000000
Si       0.49189284       2.10101904      -2.55646109       0.00000000
Si      -2.25842931      -0.60191550      -2.54552461       0.00000000
Si       2.59045209      -2.48875362       0.29330576       0.00000000
Si      -3.46820616       0.83613312      -0.88172268       0.00000000
Si       0.59740317      -2.65191426       2.54215687       0.00000000
