10
Lattice="16.28999089631971 0.0 0.0 0.0 16.28999089631971 0.0 0.0 0.0 34.71893929493243" Properties=species:S:1:pos:R:3:initial_magmoms:R:1 pbc="T T T"
Si       1.26198630       1.85218929       0.47950354       0.00000000
Si       0.00017919       0.19264554      -2.31842790       0.00000000
Si       0.81349002      -2.07513423       0.75402634       0.00000000
Si      -1.22106582       1.86070896       1.10833332       0.00000000
Si       2.07892980      -0.88352073      -2.31016479       0.00000000
Si      -1.25643141       0.74797164       3.15227314       0.00000000
Si      -3.33759294       1.36612827       0.10339306       0.00000000
Si       2.26225746      -2.79428886      -0.92713507       0.00000000
Si       1.87014087      -1.73682351       2.82046405       0.00000000
Si      -2.02843080      -0.47553768      -3.21789197       0.00000000
