10
Lattice="16.28999089631971 0.0 0.0 0.0 16.28999089631971 0.0 0.0 0.0 34.71893929493243" Properties=species:S:1:pos:R:3:initial_magmoms:R:1 pbc="T T T"
Si      -1.35672894       1.35751086       1.35955970       0.00000000
Si       1.35829278      -1.35993807       1.35938611       0.00000000
Si      -1.36658439      -1.33258716      -1.37824545       0.00000000
Si       1.36050822       1.35123921      -1.39628889       0.00000000
Si       0.02505402      -2.60669322      -2.78622421       0.00000000
Si      -0.20116521       2.59985142      -2.81318348       0.00000000
Si      -2.71085148       2.71673217       0.00656188       0.00000000
Si      -2.71057455      -2.71707426      -0.00364549       0.00000000
Si      -2.71262709      -0.00081450       2.71623773       0.00000000
Si       2.71583622       2.71427238      -0.00562447       0.00000000
