10
Lattice="16.28999089631971 0.0 0.0 0.0 16.28999089631971 0.0 0.0 0.0 34.71893929493243" Properties=species:S:1:pos:R:3:initial_magmoms:R:1 pbc="T T T"
Si      -2.30506758      -0.63938250       0.12991834       0.00000000
Si       1.18232820       0.42257889       2.06119514       0.00000000
Si      -0.43774488       2.51707771       0.10356665       0.00000000
Si      -0.00260640      -2.09179890      -1.74490543       0.00000000
Si       1.66039083       0.99737154      -2.15063118       0.00000000
Si       1.25345034      -2.69519679       0.21404238       0.00000000
Si       1.26073197       2.80372144       1.66890563       0.00000000
Si      -0.05328459       2.74000799      -2.17427479       0.00000000
Si       0.95234598      -0.83391768      -3.41610250       0.00000000
Si      -3.09549096       0.92626569       1.76962532       0.00000000
