10
Lattice="16.28999089631971 0.0 0.0 0.0 16.28999089631971 0.0 0.0 0.0 34.71893929493243" Properties=species:S:1:pos:R:3:initial_magmoms:R:1 pbc="T T T"
Si      -0.03536559      -1.11273732       2.04393982       0.00000000
Si      -2.11652712      -0.49458069      -1.00494026       0.00000000
Si       0.48812985       2.29671081       0.68510921       0.00000000
Si       1.22106582      -1.86070896      -1.10833332       0.00000000
Si       2.48305212      -0.00851967      -0.62882978       0.00000000
Si      -1.41670872       0.37084185       3.34614380       0.00000000
Si       2.28384171      -1.53156951       2.56080096       0.00000000
Si       3.50389755       0.17581797       1.47104228       0.00000000
Si      -2.86003530      -2.50738938       0.10808012       0.00000000
Si      -1.41457473      -3.00203523       1.97314786       0.00000000
