10
Lattice="16.28999089631971 0.0 0.0 0.0 16.28999089631971 0.0 0.0 0.0 34.71893929493243" Properties=species:S:1:pos:R:3:initial_magmoms:R:1 pbc="T T T"
Si      -1.23706260       1.42275231       1.41660642       0.00000000
Si       1.80144009       0.70064919      -1.37874336       0.00000000
Si       1.45459130      -1.32299235       1.40597201       0.00000000
Si      -2.00595060      -0.71887770      -1.29993132       0.00000000
Si       0.51131052      -0.05595615      -3.44622263       0.00000000
Si      -2.66385483       2.69962767       0.00649939       0.00000000
Si       2.74358853       2.62804941      -0.09256422       0.00000000
Si      -2.60038899       0.05348007       2.77733963       0.00000000
Si      -2.72075580      -2.68827191      -0.04129820       0.00000000
Si       0.11635947      -2.65645265       2.77852007       0.00000000
