10
Lattice="16.28999089631971 0.0 0.0 0.0 16.28999089631971 0.0 0.0 0.0 34.71893929493243" Properties=species:S:1:pos:R:3:initial_magmoms:R:1 pbc="T T T"
Si       1.28906028      -1.30328275       1.41535307       0.00000000
Si       1.35728280       1.32802596      -1.35525455       0.00000000
Si      -1.35946566      -1.38455540      -1.35278951       0.00000000
Si      -1.28078496       1.44221886       1.43691354       0.00000000
Si      -0.57539538      -2.16861344       2.58819421       0.00000000
Si      -2.28907080      -0.42597698       2.56455060       0.00000000
Si      -2.71528236       2.67123420       0.00774233       0.00000000
Si       0.00333945       2.68350057      -2.71227977       0.00000000
Si       2.62655073       0.03974434       2.77196166       0.00000000
Si       2.70497079       2.69733078       0.02489349       0.00000000
