10
Lattice="16.28999089631971 0.0 0.0 0.0 16.28999089631971 0.0 0.0 0.0 34.71893929493243" Properties=species:S:1:pos:R:3:initial_magmoms:R:1 pbc="T T T"
Si      -1.48649508       0.25820302      -1.84034784       0.00000000
Si       1.52277291       1.83560118       0.12512713       0.00000000
Si       1.54929303      -1.75589488      -0.52234673       0.00000000
Si      -1.49726277      -0.86606992       1.73827411       0.00000000
Si      -1.45627713      -2.00843875      -2.34967497       0.00000000
Si      -0.79097724      -3.14469883       1.65178918       0.00000000
Si       1.39579236       2.53662504       2.38692841       0.00000000
Si       0.76663998      -2.73278989      -2.52087415       0.00000000
Si      -1.81182267      -3.32903647      -0.44808288       0.00000000
Si      -0.60776361       1.81966956      -3.43075390       0.00000000
