10
Lattice="16.28999089631971 0.0 0.0 0.0 16.28999089631971 0.0 0.0 0.0 34.71893929493243" Properties=species:S:1:pos:R:3:initial_magmoms:R:1 pbc="T T T"
Si       1.35814617      -1.30448691      -1.46184176       0.00000000
Si       1.36467846       1.34654769       1.44847496       0.00000000
Si      -1.55894811      -1.18258884       1.41424206       0.00000000
Si      -1.35912846       1.43242857      -1.44653070       0.00000000
Si      -0.68970231       1.55849688       2.69592714       0.00000000
Si      -2.74088114      -2.62321128      -0.05912639       0.00000000
Si       2.70140328      -2.69319312       0.07936754       0.00000000
Si       0.00089595      -2.64409506      -2.84494091       0.00000000
Si       2.71568961       0.07428240      -2.83869150       0.00000000
Si      -2.71737467       0.07394031      -2.83917757       0.00000000
