10
Lattice="16.28999089631971 0.0 0.0 0.0 16.28999089631971 0.0 0.0 0.0 34.71893929493243" Properties=species:S:1:pos:R:3:initial_magmoms:R:1 pbc="T T T"
Si      -1.33998282      -1.35123921       1.35258119       0.00000000
Si       1.36448298       1.34351775       1.35601837       0.00000000
Si       1.35855342      -1.35604476      -1.35372692       0.00000000
Si      -1.35524655       1.35865116      -1.35452545       0.00000000
Si      -2.64539826       0.05566293       2.67960923       0.00000000
Si      -0.01223379      -2.53039086       2.86514735       0.00000000
Si       0.00066789      -2.71383255      -2.71096045       0.00000000
Si      -2.71368594       0.00070047      -2.71141180       0.00000000
Si       2.71342530      -2.71235016       0.00996434       0.00000000
Si       2.71561718       0.00104256      -2.71109933       0.00000000
