10
Lattice="16.28999089631971 0.0 0.0 0.0 16.28999089631971 0.0 0.0 0.0 34.71893929493243" Properties=species:S:1:pos:R:3:initial_magmoms:R:1 pbc="T T T"
Si      -1.35669636       1.35700587       1.35723353       0.00000000
Si       1.35624024       1.35783666      -1.35699050       0.00000000
Si      -1.35676152      -1.35731538      -1.35709466       0.00000000
Si       1.35756875      -1.35739683       1.35761544       0.00000000
Si      -2.71329498       0.00021177       2.71418932       0.00000000
Si      -0.00030951      -2.71295289      -2.71578639       0.00000000
Si       0.00037467       2.71489140       2.71391156       0.00000000
Si      -2.71479366       2.71422351       0.00045135       0.00000000
Si      -2.71477737      -2.71466334       0.00013888       0.00000000
Si       0.00050499      -2.71448415       2.71498785       0.00000000
