10
Lattice="16.28999089631971 0.0 0.0 0.0 16.28999089631971 0.0 0.0 0.0 34.71893929493243" Properties=species:S:1:pos:R:3:initial_magmoms:R:1 pbc="T T T"
Si      -0.58875318      -1.97592813       1.12656077       0.00000000
Si       0.06216264       1.69052733       1.63404779       0.00000000
Si       2.09631123      -0.57883257      -0.95994449       0.00000000
Si      -1.82127087       0.85082670      -1.41472813       0.00000000
Si       0.86333742       3.38485023       0.22390256       0.00000000
Si       1.81263717       0.26194320      -3.12883784       0.00000000
Si      -0.06973749      -3.59629443      -0.50245277       0.00000000
Si      -3.27003831       1.56998133       0.26643329       0.00000000
Si       1.63308879      -2.70951570      -1.98210535       0.00000000
Si      -2.21338746       1.90829205       2.33287099       0.00000000
