10
Lattice="16.28999089631971 0.0 0.0 0.0 16.28999089631971 0.0 0.0 0.0 34.71893929493243" Properties=species:S:1:pos:R:3:initial_magmoms:R:1 pbc="T T T"
Si      -0.98562645      -1.71447363      -1.24024249       0.00000000
Si       1.25914192      -1.36826226       1.50512241       0.00000000
Si      -1.43215164       1.32506118       1.45197463       0.00000000
Si       1.98008112       0.79100982      -1.19492837       0.00000000
Si       0.62421651      -3.46559976      -0.94234337       0.00000000
Si       2.57578850      -2.73259863       0.19548857       0.00000000
Si       2.68641878       2.63094156       0.14343096       0.00000000
Si       3.57670475      -0.99220761      -0.94210380       0.00000000
Si      -2.67957468      -2.76420123      -0.01489443       0.00000000
Si       2.63349909      -0.03153744       2.84629842       0.00000000
