10
Lattice="16.28999089631971 0.0 0.0 0.0 16.28999089631971 0.0 0.0 0.0 34.71893929493243" Properties=species:S:1:pos:R:3:initial_magmoms:R:1 pbc="T T T"
Si       1.35604476      -1.35459495       1.35782376       0.00000000
Si      -1.35764118       1.35500220       1.35858757       0.00000000
Si      -1.35707103      -1.35788553      -1.35667803       0.00000000
Si       1.35813152       1.35677781      -1.35692106       0.00000000
Si      -2.69228088       0.00190593       2.72842409       0.00000000
Si       0.00030951       2.71451673      -2.71346022       0.00000000
Si      -2.71366965      -2.71467963       0.00027775       0.00000000
Si      -2.71322982       2.71523349       0.00114573       0.00000000
Si      -2.71516833      -0.00066789      -2.71346022       0.00000000
Si       2.71541009       2.71329498      -0.00006944       0.00000000
