10
Lattice="16.28999089631971 0.0 0.0 0.0 16.28999089631971 0.0 0.0 0.0 34.71893929493243" Properties=species:S:1:pos:R:3:initial_magmoms:R:1 pbc="T T T"
Si      -2.25891801      -0.36173574      -0.35854269       0.00000000
Si       0.44688357       2.18997873       0.69781635       0.00000000
Si       1.23561279      -1.80247221       0.88814568       0.00000000
Si       0.56664765      -0.08399124      -2.30894963       0.00000000
Si      -1.95111031      -2.69446374      -0.30066618       0.00000000
Si       1.93549635       2.93369868      -0.92730867       0.00000000
Si       0.36022077      -3.66068880      -0.33833625       0.00000000
Si       3.50852391      -0.99992907       0.64969587       0.00000000
Si      -1.59907527       3.38160852       0.24143564       0.00000000
Si       0.82955196       2.21936589      -2.91868398       0.00000000
