10
Lattice="16.28999089631971 0.0 0.0 0.0 16.28999089631971 0.0 0.0 0.0 34.71893929493243" Properties=species:S:1:pos:R:3:initial_magmoms:R:1 pbc="T T T"
Si      -2.20801176       0.67579065       0.36416716       0.00000000
Si      -0.05611905      -2.00186181      -1.23259247       0.00000000
Si       0.07871328       1.67011174      -1.67956435       0.00000000
Si       2.38506777       1.43188678      -2.17996870       0.00000000
Si       1.20125718      -2.31894666       2.58385434       0.00000000
Si       2.11248720      -2.80991097      -1.39646596       0.00000000
Si      -2.60776836       1.05315080       2.61933712       0.00000000
Si      -0.12448818       3.84483815      -0.33451717       0.00000000
Si       3.12650712      -0.82264500      -2.35984762       0.00000000
Si      -3.87188865      -0.09387927      -1.09340417       0.00000000
