10
Lattice="16.28999089631971 0.0 0.0 0.0 16.28999089631971 0.0 0.0 0.0 34.71893929493243" Properties=species:S:1:pos:R:3:initial_magmoms:R:1 pbc="T T T"
Si      -2.31694366      -0.35236899      -0.04353757       0.00000000
Si       0.53866795      -0.97406055       2.11219729       0.00000000
Si       1.54302790      -1.43053893      -1.16034232       0.00000000
Si       0.22411945       2.32865550       0.55071212       0.00000000
Si       3.36423361      -0.69631605       0.16179035       0.00000000
Si      -2.96225572       0.11653866       2.18021173       0.00000000
Si       1.80098005       3.04290684      -1.05323433       0.00000000
Si       2.79758596      -0.61232481       2.47073998       0.00000000
Si      -1.10148160      -0.22889079       3.64128967       0.00000000
Si      -2.78728483      -2.64161898      -0.11488503       0.00000000
