10
Lattice="16.28999089631971 0.0 0.0 0.0 16.28999089631971 0.0 0.0 0.0 34.71893929493243" Properties=species:S:1:pos:R:3:initial_magmoms:R:1 pbc="T T T"
Si       1.70532028       0.88174512      -1.41399903       0.00000000
Si      -1.00288312      -1.76466312      -1.39226496       0.00000000
Si      -1.68618346       1.87431111      -0.00326358       0.00000000
Si       0.25109732      -1.43712009       2.76262226       0.00000000
Si       1.18969291       0.77239035       2.87104957       0.00000000
Si      -0.63673700       2.25326538       2.23301927       0.00000000
Si      -1.73223529       0.21745521       3.01596650       0.00000000
Si       1.09293031      -3.10049199       1.25200037       0.00000000
Si      -3.45703678      -0.29931246       1.10229222       0.00000000
Si       0.42359539       2.20615470      -2.91844095       0.00000000
