10
Lattice="16.28999089631971 0.0 0.0 0.0 16.28999089631971 0.0 0.0 0.0 34.71893929493243" Properties=species:S:1:pos:R:3:initial_magmoms:R:1 pbc="T T T"
Si       1.35946566       1.34504901      -1.36351766       0.00000000
Si      -1.35558864      -1.36826226      -1.36563552       0.00000000
Si       1.29253005      -1.38065895       1.41559610       0.00000000
Si      -1.18382688       1.45498242       1.49329713       0.00000000
Si      -2.13167682      -0.28023687       2.90559493       0.00000000
Si      -0.40879755      -2.24845983       2.84490619       0.00000000
Si       0.64418805       2.21144799       2.97180399       0.00000000
Si       2.46584988       0.25632315       2.83473354       0.00000000
Si      -2.70666984       2.70946424       0.02253260       0.00000000
Si       0.00302994       2.70438339      -2.72325096       0.00000000
