10
Lattice="16.28999089631971 0.0 0.0 0.0 16.28999089631971 0.0 0.0 0.0 34.71893929493243" Properties=species:S:1:pos:R:3:initial_magmoms:R:1 pbc="T T T"
Si       1.35275907       1.35185171      -1.38726543       0.00000000
Si      -1.36124357      -1.36391795      -1.38198815       0.00000000
Si      -1.38901802       1.37273549       1.39854909       0.00000000
Si       1.52284296      -1.25448182       1.47076453       0.00000000
Si       2.71000929       2.69145986      -0.00416628       0.00000000
Si       2.70666984      -2.70946424      -0.02253260       0.00000000
Si      -2.72758361      -2.71648523       0.00576335       0.00000000
Si      -0.00507922       2.71035626      -2.74474200       0.00000000
Si       2.70969978      -0.00508085      -2.74578357       0.00000000
Si      -2.73260093       2.72322536      -0.00788120       0.00000000
