10
Lattice="10.86 0.0 0.0 0.0 10.86 0.0 0.0 0.0 10.86" Properties=species:S:1:pos:R:3:initial_magmoms:R:1 pbc="T T T"
Si       1.31421204       1.52114934       1.10272440       0.00000000
Si       1.31421204      -1.19385066      -1.61227560       0.00000000
Si      -1.40078796       1.52114934      -1.61227560       0.00000000
Si       0.05838336      -2.53869876       2.47864296       0.00000000
Si       2.67171204       0.16364934       2.46022440       0.00000000
Si       2.67171204      -2.55135066      -0.25477560       0.00000000
Si       0.23937612       3.11539734       2.15772996       0.00000000
Si      -2.86940748      -2.59872198      -0.31314810       0.00000000
Si      -0.04328796      -2.55135066      -2.96977560       0.00000000
Si      -2.68732872       2.84752458      -0.30365646       0.00000000
