10
Lattice="10.86 0.0 0.0 0.0 10.86 0.0 0.0 0.0 10.86" Properties=species:S:1:pos:R:3:initial_magmoms:R:1 pbc="T T T"
Si      -1.45270962      -1.17970008       1.22269482       0.00000000
Si       1.26229038      -1.17970008      -1.49230518       0.00000000
Si       1.26229038       1.53529992       1.22269482       0.00000000
Si      -0.09520962      -2.53720008       2.58019482       0.00000000
Si       2.61979038      -2.53720008      -0.13480518       0.00000000
Si       2.61979038       0.17779992       2.58019482       0.00000000
Si       0.00646170      -2.52454818      -2.83138662       0.00000000
Si      -2.81020962       0.17779992       2.58019482       0.00000000
Si      -2.76631350      -2.63411472      -0.22130508       0.00000000
Si       2.61979038       0.17779992      -2.84980518       0.00000000
