10
Lattice="16.28999089631971 0.0 0.0 0.0 16.28999089631971 0.0 0.0 0.0 34.28971787722196" Properties=species:S:1:pos:R:3:initial_magmoms:R:1 pbc="T T T"
Si       0.93481794       1.69686414       1.27961515       0.00000000
Si      -1.74865005      -1.03184933       1.24044255       0.00000000
Si      -0.58466439       1.23028596      -2.00798681       0.00000000
Si       1.89107352      -1.76183029      -0.22570915       0.00000000
Si       2.41206030      -0.45452358      -2.25802757       0.00000000
Si      -1.35420399      -2.92977998      -1.05596655       0.00000000
Si       1.65341871       1.99576935      -2.29046566       0.00000000
Si       2.31834393       0.33855507       2.63414206       0.00000000
Si      -0.38921697      -2.38992938       2.61906829       0.00000000
Si       2.62866843       2.57162085      -0.08659568       0.00000000
