10
Lattice="16.28999089631971 0.0 0.0 0.0 16.28999089631971 0.0 0.0 0.0 34.28971787722196" Properties=species:S:1:pos:R:3:initial_magmoms:R:1 pbc="T T T"
Si      -1.99499299       0.99134424       0.78921259       0.00000000
Si       0.49827689      -1.62699845       1.66120060       0.00000000
Si       1.66930309       1.69008750       0.29005689       0.00000000
Si       0.32519564      -0.41879472      -2.36664336       0.00000000
Si       0.04886023      -0.02823057       3.39458110       0.00000000
Si       0.83431027       3.10111101      -1.55068478       0.00000000
Si       2.57735656      -1.17833226      -2.26778605       0.00000000
Si      -3.31480879      -0.88377811       1.18837942       0.00000000
Si       2.87103268      -1.73751488       1.39905556       0.00000000
Si      -1.38830452       1.82467548       2.91167873       0.00000000
