10
Lattice="16.28999089631971 0.0 0.0 0.0 16.28999089631971 0.0 0.0 0.0 34.28971787722196" Properties=species:S:1:pos:R:3:initial_magmoms:R:1 pbc="T T T"
Si      -0.93180429      -1.81007964       1.23045292       0.00000000
Si      -1.31168709       1.39253436      -1.42864760       0.00000000
Si       1.19869965       1.26680814       1.63589477       0.00000000
Si       1.41780015      -1.31370705      -1.42971059       0.00000000
Si       2.53198728       2.68967448       0.08860468       0.00000000
Si       2.77158060      -2.56269393       0.09913163       0.00000000
Si      -2.80798875       2.59669116       0.02815187       0.00000000
Si      -2.65877235       0.03541446      -2.80363177       0.00000000
Si       0.05274702      -2.67626781      -2.80534626       0.00000000
Si      -3.01394322      -1.03852008       2.23946273       0.00000000
