10
Lattice="16.28999089631971 0.0 0.0 0.0 16.28999089631971 0.0 0.0 0.0 34.28971787722196" Properties=species:S:1:pos:R:3:initial_magmoms:R:1 pbc="T T T"
Si      -1.80812484      -0.17562249      -1.58826633       0.00000000
Si       1.84886613      -1.61244936      -0.01086985       0.00000000
Si       1.08483255       2.23694280      -0.01947657       0.00000000
Si      -1.02563469      -1.02488535       2.02117426       0.00000000
Si       0.27401409      -0.94718205      -2.59727613       0.00000000
Si       0.62058384      -2.69149896       1.73612368       0.00000000
Si       3.82764501      -0.31798080       0.58697172       0.00000000
Si       2.40451803       2.12970573      -2.19183428       0.00000000
Si      -2.75189413       1.92839391      -2.30759643       0.00000000
Si       2.12695272      -2.62181034      -2.31452296       0.00000000
