10
Lattice="16.28999089631971 0.0 0.0 0.0 16.28999089631971 0.0 0.0 0.0 34.28971787722196" Properties=species:S:1:pos:R:3:initial_magmoms:R:1 pbc="T T T"
Si      -0.35779356      -2.12708304      -0.90908951       0.00000000
Si       0.99162117       1.25340147      -1.75199982       0.00000000
Si      -1.88245611       1.20021462       0.80680322       0.00000000
Si       1.78046442      -0.54007866       1.47833343       0.00000000
Si       1.82902491      -2.41266303      -1.82843165       0.00000000
Si       3.16845387       1.66368141      -0.82960590       0.00000000
Si      -1.42403922       3.40627158      -0.03617567       0.00000000
Si       3.00687336      -2.24701002       0.21149910       0.00000000
Si      -3.82223673       0.26212239      -0.10773835       0.00000000
Si      -0.30553524       3.15416754      -2.23435356       0.00000000
