10
Lattice="16.28999089631971 0.0 0.0 0.0 16.28999089631971 0.0 0.0 0.0 34.28971787722196" Properties=species:S:1:pos:R:3:initial_magmoms:R:1 pbc="T T T"
Si      -0.68564610       1.33496550       1.80130847       0.00000000
Si       0.67448745       0.98686449      -2.05237792       0.00000000
Si      -1.72783143      -1.60461387      -0.36830607       0.00000000
Si       2.06399187      -0.94486887       0.77227346       0.00000000
Si      -1.23255027      -2.98502847       1.67587661       0.00000000
Si       2.22694074      -3.09112524      -0.11339616       0.00000000
Si      -1.72950930       3.30515955       0.96954231       0.00000000
Si       1.06023465       2.39956587       2.87138829       0.00000000
Si       1.90089639      -0.72006687      -3.31921226       0.00000000
Si      -1.13192694      -0.00078192       3.77543721       0.00000000
