10
Lattice="16.28999089631971 0.0 0.0 0.0 16.28999089631971 0.0 0.0 0.0 34.28971787722196" Properties=species:S:1:pos:R:3:initial_magmoms:R:1 pbc="T T T"
Si      -0.75288700      -1.53889366       1.59193533       0.00000000
Si       2.23126899       0.48848823       0.70047075       0.00000000
Si      -1.43716474       1.85290605      -0.48290237       0.00000000
Si       0.44941667      -1.59876788      -1.73338050       0.00000000
Si      -0.04886023       0.02823057      -3.39458110       0.00000000
Si      -2.04385321       1.01957481      -2.60536851       0.00000000
Si       1.28382630      -2.85683336       1.48423127       0.00000000
Si       3.16784625      -1.70545616       0.51952381       0.00000000
Si       2.35238514      -0.00672777       2.98464729       0.00000000
Si       2.82217245      -1.70928431      -1.99552554       0.00000000
