10
Lattice="16.28999089631971 0.0 0.0 0.0 16.28999089631971 0.0 0.0 0.0 34.28971787722196" Properties=species:S:1:pos:R:3:initial_magmoms:R:1 pbc="T T T"
Si       1.35876519      -1.35705474       1.35962236       0.00000000
Si      -1.35936792       1.35881315       1.35989668       0.00000000
Si      -1.35754344      -1.34943102      -1.37225127       0.00000000
Si       1.34557029       1.37103156      -1.36441264       0.00000000
Si       2.63081871       0.00017919      -2.77518843       0.00000000
Si       0.00035838      -2.71425609       2.71753024       0.00000000
Si      -2.71863810      -2.71360449       0.00041148       0.00000000
Si      -2.71546155       0.00120546       2.71729021       0.00000000
Si       2.71505430       0.00136836       2.71818174       0.00000000
Si       0.00001629       2.71591834       2.71763311       0.00000000
