10
Lattice="16.28999089631971 0.0 0.0 0.0 16.28999089631971 0.0 0.0 0.0 34.28971787722196" Properties=species:S:1:pos:R:3:initial_magmoms:R:1 pbc="T T T"
Si      -0.93481794      -1.69686414      -1.27961515       0.00000000
Si       1.69385049       0.87475671      -1.36621083       0.00000000
Si      -1.34881200       1.37497374       1.34715461       0.00000000
Si       1.38352599      -1.35830907       1.35452691       0.00000000
Si      -1.51948233      -0.46657818      -3.28760196       0.00000000
Si       0.71860077       0.29890521      -3.57008081       0.00000000
Si       2.65453695       2.65803930      -0.09970770       0.00000000
Si      -2.69089134      -0.00004887       2.71071687       0.00000000
Si      -2.68346799      -2.72871347      -0.03917260       0.00000000
Si       0.02262681      -2.71166272       2.71273996       0.00000000
