10
Lattice="16.28999089631971 0.0 0.0 0.0 16.28999089631971 0.0 0.0 0.0 34.28971787722196" Properties=species:S:1:pos:R:3:initial_magmoms:R:1 pbc="T T T"
Si       0.12111615      -0.49521600       2.28417654       0.00000000
Si      -2.23126899      -0.48848823      -0.70047075       0.00000000
Si       0.93657726      -2.19394439      -0.18094694       0.00000000
Si       1.13249709       2.12307570      -0.32873571       0.00000000
Si       0.59090346      -2.19777254      -2.69599629       0.00000000
Si      -0.94744269      -3.34532159       0.78376052       0.00000000
Si       1.36560699      -0.05118318      -3.37884211       0.00000000
Si      -1.78185233      -2.08725611      -2.43385125       0.00000000
Si      -0.19847736       2.94207174      -2.24789800       0.00000000
Si      -2.98415600      -2.02738189       0.89146458       0.00000000
