10
Lattice="16.28999089631971 0.0 0.0 0.0 16.28999089631971 0.0 0.0 0.0 34.28971787722196" Properties=species:S:1:pos:R:3:initial_magmoms:R:1 pbc="T T T"
Si       1.83189195       0.99264010      -1.04556266       0.00000000
Si      -1.14681600      -1.83198969      -0.88604681       0.00000000
Si      -1.61821602       1.80687281       0.30253835       0.00000000
Si      -0.20597076       1.30927195       2.35412761       0.00000000
Si       1.85901480       0.16959519       2.25129269       0.00000000
Si      -2.30500242      -0.38406933      -2.36948941       0.00000000
Si       0.42567399       2.36810403      -2.35741942       0.00000000
Si       1.31409801      -2.17680012       2.32264963       0.00000000
Si      -2.25753336       0.08788455       2.64418449       0.00000000
Si       3.45339855       1.24220928       0.65678562       0.00000000
