10
Lattice="16.28999089631971 0.0 0.0 0.0 16.28999089631971 0.0 0.0 0.0 34.28971787722196" Properties=species:S:1:pos:R:3:initial_magmoms:R:1 pbc="T T T"
Si      -1.05111225      -1.81786626       1.01329602       0.00000000
Si      -0.91355949       1.44346572      -1.60222225       0.00000000
Si       1.70315208      -0.66538134      -1.52637335       0.00000000
Si       0.24643512       1.38781745       1.95060598       0.00000000
Si       2.89137726       1.32215083      -1.27355512       0.00000000
Si       1.08752040       2.65491881      -2.03296993       0.00000000
Si       0.60387030      -3.30978591       1.79983401       0.00000000
Si      -0.14843448      -0.03999195       3.84267938       0.00000000
Si      -1.30950423       0.34431751      -3.61194374       0.00000000
Si       0.75548133      -0.79535925      -3.71477866       0.00000000
