10
Lattice="16.28999089631971 0.0 0.0 0.0 16.28999089631971 0.0 0.0 0.0 34.28971787722196" Properties=species:S:1:pos:R:3:initial_magmoms:R:1 pbc="T T T"
Si      -1.35586557      -1.35695058      -1.35615910       0.00000000
Si       1.35878148       1.35772100      -1.35629626       0.00000000
Si      -1.35839052       1.36159802       1.35650200       0.00000000
Si       1.36252818      -1.35672255       1.36078821       0.00000000
Si      -2.71331127       2.71264175       0.00003429       0.00000000
Si      -2.71355562       0.00008960      -2.71386124       0.00000000
Si       0.00148239      -2.71446039      -2.71331260       0.00000000
Si       0.00185706       2.71475945      -2.71416985       0.00000000
Si      -2.71406061      -2.71569843       0.00058293       0.00000000
Si       2.71591767       0.00006353      -2.71410127       0.00000000
