10
Lattice="16.28999089631971 0.0 0.0 0.0 16.28999089631971 0.0 0.0 0.0 34.28971787722196" Properties=species:S:1:pos:R:3:initial_magmoms:R:1 pbc="T T T"
Si      -0.16294887       2.14625637       0.88566962       0.00000000
Si      -0.38125116       0.21729231      -2.29806389       0.00000000
Si       2.21126976      -0.41684481       0.64423558       0.00000000
Si      -1.52886537      -1.45507004       1.12559491       0.00000000
Si       0.11906361       1.21397967       3.08597346       0.00000000
Si       1.77275925      -0.59105007       2.95203775       0.00000000
Si       2.59063128      -2.25299004      -0.76589557       0.00000000
Si       0.71799804      -3.00427415      -2.09417711       0.00000000
Si      -2.82185154      -2.31260075      -0.81619861       0.00000000
Si      -2.42698194      -0.88479135      -2.70827201       0.00000000
