10
Lattice="16.28999089631971 0.0 0.0 0.0 16.28999089631971 0.0 0.0 0.0 34.28971787722196" Properties=species:S:1:pos:R:3:initial_magmoms:R:1 pbc="T T T"
Si      -2.30254263       0.24307938       0.19270832       0.00000000
Si       0.60676992      -2.32360397       0.15276078       0.00000000
Si       0.39692214       1.07026929      -2.17047178       0.00000000
Si       0.80873334       1.11032640       2.06036743       0.00000000
Si       2.90468619      -1.62829953      -0.25734448       0.00000000
Si       2.52398889      -0.69853149       2.13556482       0.00000000
Si       1.28347281       3.15732780       0.61817538       0.00000000
Si      -1.13158485       0.23591178       3.44285560       0.00000000
Si      -1.00253547       2.90300832      -1.96562489       0.00000000
Si      -3.11909517      -1.60832799      -1.02913788       0.00000000
