10
Lattice="16.28999089631971 0.0 0.0 0.0 16.28999089631971 0.0 0.0 0.0 34.28971787722196" Properties=species:S:1:pos:R:3:initial_magmoms:R:1 pbc="T T T"
Si       1.35760860       1.26742716      -1.39130608       0.00000000
Si      -1.21068909       1.45218834       1.40282743       0.00000000
Si       1.42648272      -1.16010864       1.50192477       0.00000000
Si      -1.52883279      -1.47084039      -1.20614150       0.00000000
Si      -1.67858676      -0.08902485       3.10942764       0.00000000
Si      -0.18370233       2.50058016      -2.72901730       0.00000000
Si       2.28752325      -2.95569018       0.14377687       0.00000000
Si       3.05755155       2.16367038      -0.00610357       0.00000000
Si       2.53746072      -0.23470632      -2.75607190       0.00000000
Si       0.37295955      -1.19239542       3.64520479       0.00000000
