10
Lattice="16.28999089631971 0.0 0.0 0.0 16.28999089631971 0.0 0.0 0.0 34.28971787722196" Properties=species:S:1:pos:R:3:initial_magmoms:R:1 pbc="T T T"
Si       1.46311893       1.25317341       1.32677280       0.00000000
Si      -1.40279706      -1.36650294       1.35355308       0.00000000
Si       1.05352317       0.03228678      -2.14328001       0.00000000
Si      -2.05154631       1.10337057      -0.53577714       0.00000000
Si       2.62440045       2.17794042      -0.49661826       0.00000000
Si      -2.24020080       2.29956156       1.42998490       0.00000000
Si      -1.48480092      -3.18959829      -0.09254800       0.00000000
Si       1.96924923      -0.39625425       2.89268222       0.00000000
Si      -0.06336810       2.70984150       2.35237883       0.00000000
Si      -0.22494861      -1.20084993       3.39348383       0.00000000
