10
Lattice="16.28999089631971 0.0 0.0 0.0 16.28999089631971 0.0 0.0 0.0 34.28971787722196" Properties=species:S:1:pos:R:3:initial_magmoms:R:1 pbc="T T T"
Si      -0.80873334      -1.11032640      -2.06036743       0.00000000
Si       1.71525555      -1.80885789       0.07519739       0.00000000
Si      -1.94031819      -0.87441462       1.38248817       0.00000000
Si       0.47473947       2.04700140      -1.44219205       0.00000000
Si       0.78508026       1.92103083       1.53022550       0.00000000
Si       2.05644960       0.49213719       2.81701989       0.00000000
Si      -0.68859459      -2.23684506       2.81846349       0.00000000
Si      -3.11127597      -0.86724702      -1.86765911       0.00000000
Si       3.47820822      -0.75189753       1.22434390       0.00000000
Si       1.90221588       3.29085693       0.04450808       0.00000000
