10
Lattice="16.28999089631971 0.0 0.0 0.0 16.28999089631971 0.0 0.0 0.0 34.28971787722196" Properties=species:S:1:pos:R:3:initial_magmoms:R:1 pbc="T T T"
Si      -0.46789767      -1.54121319       1.70660021       0.00000000
Si       1.21068909      -1.45218834      -1.40282743       0.00000000
Si      -1.89102465       0.90647334      -1.07220579       0.00000000
Si       1.20552516       1.99798479       0.87716576       0.00000000
Si      -3.21071013       1.01371041       1.10015192       0.00000000
Si      -0.55773702       2.32933968      -2.61949588       0.00000000
Si       0.77993262       3.44051316      -1.01974249       0.00000000
Si       2.63717181      -2.61229698       0.09909734       0.00000000
Si      -0.65655216      -0.34502220       3.67236226       0.00000000
Si       2.56829769      -0.18476118      -2.79413351       0.00000000
