10
Lattice="16.28999089631971 0.0 0.0 0.0 16.28999089631971 0.0 0.0 0.0 34.28971787722196" Properties=species:S:1:pos:R:3:initial_magmoms:R:1 pbc="T T T"
Si       1.17968922       1.95266601      -0.34783509       0.00000000
Si       1.52648703      -1.45666809      -1.02560603       0.00000000
Si       0.23190444      -0.48374784       2.30992814       0.00000000
Si      -2.17683270      -0.41027994      -0.92239393       0.00000000
Si      -1.38798945      -2.20376007       2.30793933       0.00000000
Si       0.06336810      -2.70984150      -2.35237883       0.00000000
Si      -3.16845387      -1.66368141       0.82960590       0.00000000
Si      -0.54265248       3.61929591      -0.41624312       0.00000000
Si       1.97537427       1.82050524      -2.60704871       0.00000000
Si       2.20027401      -1.77538194       2.45860844       0.00000000
