10
Lattice="16.28999089631971 0.0 0.0 0.0 16.28999089631971 0.0 0.0 0.0 34.28971787722196" Properties=species:S:1:pos:R:3:initial_magmoms:R:1 pbc="T T T"
Si      -1.17968922      -1.95266601       0.34783509       0.00000000
Si      -1.72234170       1.66662990      -0.06840803       0.00000000
Si       0.79568505      -0.13216077      -2.25921361       0.00000000
Si       2.02196367      -0.09868482       1.35753069       0.00000000
Si       0.34679781      -3.40933410      -0.67777094       0.00000000
Si      -0.50257908       3.44258199      -0.89211609       0.00000000
Si       1.63475037       1.84928967       2.64819639       0.00000000
Si       2.46907530       1.56245535      -2.16711138       0.00000000
Si      -1.49444460      -0.01993896      -3.36975533       0.00000000
Si      -0.94778478      -2.43641385       2.65776323       0.00000000
