10
Lattice="16.28999089631971 0.0 0.0 0.0 16.28999089631971 0.0 0.0 0.0 34.28971787722196" Properties=species:S:1:pos:R:3:initial_magmoms:R:1 pbc="T T T"
Si       1.46535066      -1.40221062       1.10556970       0.00000000
Si      -2.34302328       0.13664052       0.22398056       0.00000000
Si       1.18612377       1.88861373      -0.78266325       0.00000000
Si      -0.82065762      -1.65653010      -1.47823056       0.00000000
Si       3.30115221      -1.13010246      -0.52741045       0.00000000
Si      -2.82662451      -2.27336724      -0.46877500       0.00000000
Si       3.47481990       1.18923516      -0.59972750       0.00000000
Si      -2.78772399       1.04705604      -2.31743759       0.00000000
Si       0.06761979       3.78980334       0.36227107       0.00000000
Si      -1.57498236      -0.63653175      -3.42547615       0.00000000
