10
Lattice="16.28999089631971 0.0 0.0 0.0 16.28999089631971 0.0 0.0 0.0 34.28971787722196" Properties=species:S:1:pos:R:3:initial_magmoms:R:1 pbc="T T T"
Si       1.35695700       1.35769005       1.35653629       0.00000000
Si       1.35690813      -1.35742941      -1.35756498       0.00000000
Si      -1.35811522       1.35759231      -1.35773643       0.00000000
Si      -1.35883035      -1.35817875       1.35670774       0.00000000
Si       2.71440270      -2.71438641      -0.00048006       0.00000000
Si       2.71391400      -0.00004887      -2.71502709       0.00000000
Si      -0.00128691       2.71322982      -2.71612436       0.00000000
Si       0.00177561      -2.71246419       2.71691302       0.00000000
Si      -2.71462673       0.00273672      -2.71482135       0.00000000
Si       2.71454931       2.71505430      -0.00054864       0.00000000
