10
Lattice="16.28999089631971 0.0 0.0 0.0 16.28999089631971 0.0 0.0 0.0 34.28971787722196" Properties=species:S:1:pos:R:3:initial_magmoms:R:1 pbc="T T T"
Si       0.96581781       1.58508216       1.47641321       0.00000000
Si       1.44288675      -1.17068085      -1.54063789       0.00000000
Si      -1.24370892       1.51058799      -1.53875195       0.00000000
Si      -1.50904044      -1.48449141       1.59210678       0.00000000
Si      -0.92778066       3.15314031       1.48536283       0.00000000
Si       2.77884594      -2.53659735      -0.21890568       0.00000000
Si       2.64609873       2.72932434       0.07265995       0.00000000
Si      -2.84671008      -2.59566489      -0.00764661       0.00000000
Si       0.10096542      -2.52991845      -2.90458076       0.00000000
Si      -2.54928726       2.90357113      -0.21698546       0.00000000
