10
Lattice="16.28999089631971 0.0 0.0 0.0 16.28999089631971 0.0 0.0 0.0 34.28971787722196" Properties=species:S:1:pos:R:3:initial_magmoms:R:1 pbc="T T T"
Si       1.28859669       1.94745321      -0.26505967       0.00000000
Si      -0.60668847      -0.83333124      -2.12246614       0.00000000
Si       1.43716474      -1.85290605       0.48290237       0.00000000
Si      -1.67811435       0.30281481       1.72837420       0.00000000
Si       1.89555068       2.40533253       1.95139465       0.00000000
Si       1.38830452      -1.82467548      -2.91167873       0.00000000
Si      -1.92650427      -2.70845359      -1.72329931       0.00000000
Si      -2.95837803      -1.70134389       1.84807967       0.00000000
Si       3.46995638       1.57765392      -1.06452489       0.00000000
Si      -1.52153487       0.74626119      -3.58578067       0.00000000
