10
Lattice="16.28999089631971 0.0 0.0 0.0 16.28999089631971 0.0 0.0 0.0 34.28971787722196" Properties=species:S:1:pos:R:3:initial_magmoms:R:1 pbc="T T T"
Si      -0.37936152       1.83614523       1.41013115       0.00000000
Si       1.46869011      -1.36711127       1.24835217       0.00000000
Si       0.65251224       0.82903553      -2.16124784       0.00000000
Si      -1.87263324      -0.75128411      -1.32828154       0.00000000
Si      -1.64167362       1.09180137      -2.83126930       0.00000000
Si      -2.59063128       2.25299004       0.76589557       0.00000000
Si      -0.74925855      -2.25426467      -2.71077516       0.00000000
Si       3.26329425       0.14568941       1.63688918       0.00000000
Si       2.11450716      -3.17047943      -0.14422263       0.00000000
Si       1.10902320      -1.06014251      -3.49655878       0.00000000
