10
Lattice="16.28999089631971 0.0 0.0 0.0 16.28999089631971 0.0 0.0 0.0 34.28971787722196" Properties=species:S:1:pos:R:3:initial_magmoms:R:1 pbc="T T T"
Si      -2.21126976       0.41684481      -0.64423558       0.00000000
Si       0.37936152      -1.83614523      -1.41013115       0.00000000
Si      -0.43851051      -0.17420526       2.30780217       0.00000000
Si       1.28026368       2.00415870      -0.11970547       0.00000000
Si      -2.37421863       2.56310118       0.24143404       0.00000000
Si      -2.09220615       1.63082448       2.44173788       0.00000000
Si       1.84805163      -3.20325650      -0.16177898       0.00000000
Si       1.57434705       0.50316552       3.33357966       0.00000000
Si      -0.36259911       3.70744110      -0.39868677       0.00000000
Si      -0.70239222      -2.43669797       2.88702441       0.00000000
