10
Lattice="16.28999089631971 0.0 0.0 0.0 16.28999089631971 0.0 0.0 0.0 34.28971787722196" Properties=species:S:1:pos:R:3:initial_magmoms:R:1 pbc="T T T"
Si       0.96936970      -1.83477432       1.05008891       0.00000000
Si       1.68479229       1.57205831       0.40221862       0.00000000
Si       0.28797462      -0.94351859      -2.15775028       0.00000000
Si      -1.78033410       1.25010275       0.94907134       0.00000000
Si       3.01974965      -1.73198442      -0.11538497       0.00000000
Si       1.31074620      -0.90396468       3.11655991       0.00000000
Si       3.39324677       0.58864729      -0.76503832       0.00000000
Si      -1.39097052       3.27340219      -0.21760267       0.00000000
Si       2.58132059       0.93399530       2.51103744       0.00000000
Si       0.90068780       3.68461067      -0.26869438       0.00000000
